<routes>
  <vType xmlns:length="5" xmlns:maxSpeed="40" accel="3.0" decel="4.5" id="type1" sigma="0.5"/>
  <flow begin="0" end="10" id="type_west_right_0" probability="0.00833333333333" type="type1">
    <route edges="west_u west_c south_out"/>
  </flow>
  <flow begin="0" end="10" id="type_west_through_0" probability="0.00416666666667" type="type1">
    <route edges="west_u west_c east_out"/>
  </flow>
  <flow begin="0" end="10" id="type_west_left_0" probability="0.00277777777778" type="type1">
    <route edges="west_u west_c north_out"/>
  </flow>
  <flow begin="0" end="10" id="type_east_right_0" probability="0.00833333333333" type="type1">
    <route edges="east_u east_c north_out"/>
  </flow>
  <flow begin="0" end="10" id="type_east_through_0" probability="0.00416666666667" type="type1">
    <route edges="east_u east_c west_out"/>
  </flow>
  <flow begin="0" end="10" id="type_east_left_0" probability="0.00277777777778" type="type1">
    <route edges="east_u east_c south_out"/>
  </flow>
  <flow begin="0" end="10" id="type_north_right_0" probability="0.00833333333333" type="type1">
    <route edges="north_u north_c west_out"/>
  </flow>
  <flow begin="0" end="10" id="type_north_through_0" probability="0.00416666666667" type="type1">
    <route edges="north_u north_c south_out"/>
  </flow>
  <flow begin="0" end="10" id="type_north_left_0" probability="0.00277777777778" type="type1">
    <route edges="north_u north_c east_out"/>
  </flow>
  <flow begin="0" end="10" id="type_south_right_0" probability="0.00833333333333" type="type1">
    <route edges="south_u south_c east_out"/>
  </flow>
  <flow begin="0" end="10" id="type_south_through_0" probability="0.00416666666667" type="type1">
    <route edges="south_u south_c north_out"/>
  </flow>
  <flow begin="0" end="10" id="type_south_left_0" probability="0.00277777777778" type="type1">
    <route edges="south_u south_c west_out"/>
  </flow>
  <flow begin="10" end="20" id="type_west_right_10" probability="0.00833333333333" type="type1">
    <route edges="west_u west_c south_out"/>
  </flow>
  <flow begin="10" end="20" id="type_west_through_10" probability="0.00416666666667" type="type1">
    <route edges="west_u west_c east_out"/>
  </flow>
  <flow begin="10" end="20" id="type_west_left_10" probability="0.00277777777778" type="type1">
    <route edges="west_u west_c north_out"/>
  </flow>
  <flow begin="10" end="20" id="type_east_right_10" probability="0.00833333333333" type="type1">
    <route edges="east_u east_c north_out"/>
  </flow>
  <flow begin="10" end="20" id="type_east_through_10" probability="0.00416666666667" type="type1">
    <route edges="east_u east_c west_out"/>
  </flow>
  <flow begin="10" end="20" id="type_east_left_10" probability="0.00277777777778" type="type1">
    <route edges="east_u east_c south_out"/>
  </flow>
  <flow begin="10" end="20" id="type_north_right_10" probability="0.00833333333333" type="type1">
    <route edges="north_u north_c west_out"/>
  </flow>
  <flow begin="10" end="20" id="type_north_through_10" probability="0.00416666666667" type="type1">
    <route edges="north_u north_c south_out"/>
  </flow>
  <flow begin="10" end="20" id="type_north_left_10" probability="0.00277777777778" type="type1">
    <route edges="north_u north_c east_out"/>
  </flow>
  <flow begin="10" end="20" id="type_south_right_10" probability="0.00833333333333" type="type1">
    <route edges="south_u south_c east_out"/>
  </flow>
  <flow begin="10" end="20" id="type_south_through_10" probability="0.00416666666667" type="type1">
    <route edges="south_u south_c north_out"/>
  </flow>
  <flow begin="10" end="20" id="type_south_left_10" probability="0.00277777777778" type="type1">
    <route edges="south_u south_c west_out"/>
  </flow>
  <flow begin="20" end="30" id="type_west_right_20" probability="0.00833333333333" type="type1">
    <route edges="west_u west_c south_out"/>
  </flow>
  <flow begin="20" end="30" id="type_west_through_20" probability="0.00416666666667" type="type1">
    <route edges="west_u west_c east_out"/>
  </flow>
  <flow begin="20" end="30" id="type_west_left_20" probability="0.00277777777778" type="type1">
    <route edges="west_u west_c north_out"/>
  </flow>
  <flow begin="20" end="30" id="type_east_right_20" probability="0.00833333333333" type="type1">
    <route edges="east_u east_c north_out"/>
  </flow>
  <flow begin="20" end="30" id="type_east_through_20" probability="0.00416666666667" type="type1">
    <route edges="east_u east_c west_out"/>
  </flow>
  <flow begin="20" end="30" id="type_east_left_20" probability="0.00277777777778" type="type1">
    <route edges="east_u east_c south_out"/>
  </flow>
  <flow begin="20" end="30" id="type_north_right_20" probability="0.00833333333333" type="type1">
    <route edges="north_u north_c west_out"/>
  </flow>
  <flow begin="20" end="30" id="type_north_through_20" probability="0.00416666666667" type="type1">
    <route edges="north_u north_c south_out"/>
  </flow>
  <flow begin="20" end="30" id="type_north_left_20" probability="0.00277777777778" type="type1">
    <route edges="north_u north_c east_out"/>
  </flow>
  <flow begin="20" end="30" id="type_south_right_20" probability="0.00833333333333" type="type1">
    <route edges="south_u south_c east_out"/>
  </flow>
  <flow begin="20" end="30" id="type_south_through_20" probability="0.00416666666667" type="type1">
    <route edges="south_u south_c north_out"/>
  </flow>
  <flow begin="20" end="30" id="type_south_left_20" probability="0.00277777777778" type="type1">
    <route edges="south_u south_c west_out"/>
  </flow>
  <flow begin="30" end="40" id="type_west_right_30" probability="0.00833333333333" type="type1">
    <route edges="west_u west_c south_out"/>
  </flow>
  <flow begin="30" end="40" id="type_west_through_30" probability="0.00416666666667" type="type1">
    <route edges="west_u west_c east_out"/>
  </flow>
  <flow begin="30" end="40" id="type_west_left_30" probability="0.00277777777778" type="type1">
    <route edges="west_u west_c north_out"/>
  </flow>
  <flow begin="30" end="40" id="type_east_right_30" probability="0.00833333333333" type="type1">
    <route edges="east_u east_c north_out"/>
  </flow>
  <flow begin="30" end="40" id="type_east_through_30" probability="0.00416666666667" type="type1">
    <route edges="east_u east_c west_out"/>
  </flow>
  <flow begin="30" end="40" id="type_east_left_30" probability="0.00277777777778" type="type1">
    <route edges="east_u east_c south_out"/>
  </flow>
  <flow begin="30" end="40" id="type_north_right_30" probability="0.00833333333333" type="type1">
    <route edges="north_u north_c west_out"/>
  </flow>
  <flow begin="30" end="40" id="type_north_through_30" probability="0.00416666666667" type="type1">
    <route edges="north_u north_c south_out"/>
  </flow>
  <flow begin="30" end="40" id="type_north_left_30" probability="0.00277777777778" type="type1">
    <route edges="north_u north_c east_out"/>
  </flow>
  <flow begin="30" end="40" id="type_south_right_30" probability="0.00833333333333" type="type1">
    <route edges="south_u south_c east_out"/>
  </flow>
  <flow begin="30" end="40" id="type_south_through_30" probability="0.00416666666667" type="type1">
    <route edges="south_u south_c north_out"/>
  </flow>
  <flow begin="30" end="40" id="type_south_left_30" probability="0.00277777777778" type="type1">
    <route edges="south_u south_c west_out"/>
  </flow>
  <flow begin="40" end="50" id="type_west_right_40" probability="0.00833333333333" type="type1">
    <route edges="west_u west_c south_out"/>
  </flow>
  <flow begin="40" end="50" id="type_west_through_40" probability="0.00416666666667" type="type1">
    <route edges="west_u west_c east_out"/>
  </flow>
  <flow begin="40" end="50" id="type_west_left_40" probability="0.00277777777778" type="type1">
    <route edges="west_u west_c north_out"/>
  </flow>
  <flow begin="40" end="50" id="type_east_right_40" probability="0.00833333333333" type="type1">
    <route edges="east_u east_c north_out"/>
  </flow>
  <flow begin="40" end="50" id="type_east_through_40" probability="0.00416666666667" type="type1">
    <route edges="east_u east_c west_out"/>
  </flow>
  <flow begin="40" end="50" id="type_east_left_40" probability="0.00277777777778" type="type1">
    <route edges="east_u east_c south_out"/>
  </flow>
  <flow begin="40" end="50" id="type_north_right_40" probability="0.00833333333333" type="type1">
    <route edges="north_u north_c west_out"/>
  </flow>
  <flow begin="40" end="50" id="type_north_through_40" probability="0.00416666666667" type="type1">
    <route edges="north_u north_c south_out"/>
  </flow>
  <flow begin="40" end="50" id="type_north_left_40" probability="0.00277777777778" type="type1">
    <route edges="north_u north_c east_out"/>
  </flow>
  <flow begin="40" end="50" id="type_south_right_40" probability="0.00833333333333" type="type1">
    <route edges="south_u south_c east_out"/>
  </flow>
  <flow begin="40" end="50" id="type_south_through_40" probability="0.00416666666667" type="type1">
    <route edges="south_u south_c north_out"/>
  </flow>
  <flow begin="40" end="50" id="type_south_left_40" probability="0.00277777777778" type="type1">
    <route edges="south_u south_c west_out"/>
  </flow>
  <flow begin="50" end="60" id="type_west_right_50" probability="0.00833333333333" type="type1">
    <route edges="west_u west_c south_out"/>
  </flow>
  <flow begin="50" end="60" id="type_west_through_50" probability="0.00416666666667" type="type1">
    <route edges="west_u west_c east_out"/>
  </flow>
  <flow begin="50" end="60" id="type_west_left_50" probability="0.00277777777778" type="type1">
    <route edges="west_u west_c north_out"/>
  </flow>
  <flow begin="50" end="60" id="type_east_right_50" probability="0.00833333333333" type="type1">
    <route edges="east_u east_c north_out"/>
  </flow>
  <flow begin="50" end="60" id="type_east_through_50" probability="0.00416666666667" type="type1">
    <route edges="east_u east_c west_out"/>
  </flow>
  <flow begin="50" end="60" id="type_east_left_50" probability="0.00277777777778" type="type1">
    <route edges="east_u east_c south_out"/>
  </flow>
  <flow begin="50" end="60" id="type_north_right_50" probability="0.00833333333333" type="type1">
    <route edges="north_u north_c west_out"/>
  </flow>
  <flow begin="50" end="60" id="type_north_through_50" probability="0.00416666666667" type="type1">
    <route edges="north_u north_c south_out"/>
  </flow>
  <flow begin="50" end="60" id="type_north_left_50" probability="0.00277777777778" type="type1">
    <route edges="north_u north_c east_out"/>
  </flow>
  <flow begin="50" end="60" id="type_south_right_50" probability="0.00833333333333" type="type1">
    <route edges="south_u south_c east_out"/>
  </flow>
  <flow begin="50" end="60" id="type_south_through_50" probability="0.00416666666667" type="type1">
    <route edges="south_u south_c north_out"/>
  </flow>
  <flow begin="50" end="60" id="type_south_left_50" probability="0.00277777777778" type="type1">
    <route edges="south_u south_c west_out"/>
  </flow>
  <flow begin="60" end="70" id="type_west_right_60" probability="0.00833333333333" type="type1">
    <route edges="west_u west_c south_out"/>
  </flow>
  <flow begin="60" end="70" id="type_west_through_60" probability="0.00416666666667" type="type1">
    <route edges="west_u west_c east_out"/>
  </flow>
  <flow begin="60" end="70" id="type_west_left_60" probability="0.00277777777778" type="type1">
    <route edges="west_u west_c north_out"/>
  </flow>
  <flow begin="60" end="70" id="type_east_right_60" probability="0.00833333333333" type="type1">
    <route edges="east_u east_c north_out"/>
  </flow>
  <flow begin="60" end="70" id="type_east_through_60" probability="0.00416666666667" type="type1">
    <route edges="east_u east_c west_out"/>
  </flow>
  <flow begin="60" end="70" id="type_east_left_60" probability="0.00277777777778" type="type1">
    <route edges="east_u east_c south_out"/>
  </flow>
  <flow begin="60" end="70" id="type_north_right_60" probability="0.00833333333333" type="type1">
    <route edges="north_u north_c west_out"/>
  </flow>
  <flow begin="60" end="70" id="type_north_through_60" probability="0.00416666666667" type="type1">
    <route edges="north_u north_c south_out"/>
  </flow>
  <flow begin="60" end="70" id="type_north_left_60" probability="0.00277777777778" type="type1">
    <route edges="north_u north_c east_out"/>
  </flow>
  <flow begin="60" end="70" id="type_south_right_60" probability="0.00833333333333" type="type1">
    <route edges="south_u south_c east_out"/>
  </flow>
  <flow begin="60" end="70" id="type_south_through_60" probability="0.00416666666667" type="type1">
    <route edges="south_u south_c north_out"/>
  </flow>
  <flow begin="60" end="70" id="type_south_left_60" probability="0.00277777777778" type="type1">
    <route edges="south_u south_c west_out"/>
  </flow>
  <flow begin="70" end="80" id="type_west_right_70" probability="0.00833333333333" type="type1">
    <route edges="west_u west_c south_out"/>
  </flow>
  <flow begin="70" end="80" id="type_west_through_70" probability="0.00416666666667" type="type1">
    <route edges="west_u west_c east_out"/>
  </flow>
  <flow begin="70" end="80" id="type_west_left_70" probability="0.00277777777778" type="type1">
    <route edges="west_u west_c north_out"/>
  </flow>
  <flow begin="70" end="80" id="type_east_right_70" probability="0.00833333333333" type="type1">
    <route edges="east_u east_c north_out"/>
  </flow>
  <flow begin="70" end="80" id="type_east_through_70" probability="0.00416666666667" type="type1">
    <route edges="east_u east_c west_out"/>
  </flow>
  <flow begin="70" end="80" id="type_east_left_70" probability="0.00277777777778" type="type1">
    <route edges="east_u east_c south_out"/>
  </flow>
  <flow begin="70" end="80" id="type_north_right_70" probability="0.00833333333333" type="type1">
    <route edges="north_u north_c west_out"/>
  </flow>
  <flow begin="70" end="80" id="type_north_through_70" probability="0.00416666666667" type="type1">
    <route edges="north_u north_c south_out"/>
  </flow>
  <flow begin="70" end="80" id="type_north_left_70" probability="0.00277777777778" type="type1">
    <route edges="north_u north_c east_out"/>
  </flow>
  <flow begin="70" end="80" id="type_south_right_70" probability="0.00833333333333" type="type1">
    <route edges="south_u south_c east_out"/>
  </flow>
  <flow begin="70" end="80" id="type_south_through_70" probability="0.00416666666667" type="type1">
    <route edges="south_u south_c north_out"/>
  </flow>
  <flow begin="70" end="80" id="type_south_left_70" probability="0.00277777777778" type="type1">
    <route edges="south_u south_c west_out"/>
  </flow>
  <flow begin="80" end="90" id="type_west_right_80" probability="0.00833333333333" type="type1">
    <route edges="west_u west_c south_out"/>
  </flow>
  <flow begin="80" end="90" id="type_west_through_80" probability="0.00416666666667" type="type1">
    <route edges="west_u west_c east_out"/>
  </flow>
  <flow begin="80" end="90" id="type_west_left_80" probability="0.00277777777778" type="type1">
    <route edges="west_u west_c north_out"/>
  </flow>
  <flow begin="80" end="90" id="type_east_right_80" probability="0.00833333333333" type="type1">
    <route edges="east_u east_c north_out"/>
  </flow>
  <flow begin="80" end="90" id="type_east_through_80" probability="0.00416666666667" type="type1">
    <route edges="east_u east_c west_out"/>
  </flow>
  <flow begin="80" end="90" id="type_east_left_80" probability="0.00277777777778" type="type1">
    <route edges="east_u east_c south_out"/>
  </flow>
  <flow begin="80" end="90" id="type_north_right_80" probability="0.00833333333333" type="type1">
    <route edges="north_u north_c west_out"/>
  </flow>
  <flow begin="80" end="90" id="type_north_through_80" probability="0.00416666666667" type="type1">
    <route edges="north_u north_c south_out"/>
  </flow>
  <flow begin="80" end="90" id="type_north_left_80" probability="0.00277777777778" type="type1">
    <route edges="north_u north_c east_out"/>
  </flow>
  <flow begin="80" end="90" id="type_south_right_80" probability="0.00833333333333" type="type1">
    <route edges="south_u south_c east_out"/>
  </flow>
  <flow begin="80" end="90" id="type_south_through_80" probability="0.00416666666667" type="type1">
    <route edges="south_u south_c north_out"/>
  </flow>
  <flow begin="80" end="90" id="type_south_left_80" probability="0.00277777777778" type="type1">
    <route edges="south_u south_c west_out"/>
  </flow>
  <flow begin="90" end="100" id="type_west_right_90" probability="0.00833333333333" type="type1">
    <route edges="west_u west_c south_out"/>
  </flow>
  <flow begin="90" end="100" id="type_west_through_90" probability="0.00416666666667" type="type1">
    <route edges="west_u west_c east_out"/>
  </flow>
  <flow begin="90" end="100" id="type_west_left_90" probability="0.00277777777778" type="type1">
    <route edges="west_u west_c north_out"/>
  </flow>
  <flow begin="90" end="100" id="type_east_right_90" probability="0.00833333333333" type="type1">
    <route edges="east_u east_c north_out"/>
  </flow>
  <flow begin="90" end="100" id="type_east_through_90" probability="0.00416666666667" type="type1">
    <route edges="east_u east_c west_out"/>
  </flow>
  <flow begin="90" end="100" id="type_east_left_90" probability="0.00277777777778" type="type1">
    <route edges="east_u east_c south_out"/>
  </flow>
  <flow begin="90" end="100" id="type_north_right_90" probability="0.00833333333333" type="type1">
    <route edges="north_u north_c west_out"/>
  </flow>
  <flow begin="90" end="100" id="type_north_through_90" probability="0.00416666666667" type="type1">
    <route edges="north_u north_c south_out"/>
  </flow>
  <flow begin="90" end="100" id="type_north_left_90" probability="0.00277777777778" type="type1">
    <route edges="north_u north_c east_out"/>
  </flow>
  <flow begin="90" end="100" id="type_south_right_90" probability="0.00833333333333" type="type1">
    <route edges="south_u south_c east_out"/>
  </flow>
  <flow begin="90" end="100" id="type_south_through_90" probability="0.00416666666667" type="type1">
    <route edges="south_u south_c north_out"/>
  </flow>
  <flow begin="90" end="100" id="type_south_left_90" probability="0.00277777777778" type="type1">
    <route edges="south_u south_c west_out"/>
  </flow>
  <flow begin="100" end="110" id="type_west_right_100" probability="0.00833333333333" type="type1">
    <route edges="west_u west_c south_out"/>
  </flow>
  <flow begin="100" end="110" id="type_west_through_100" probability="0.00416666666667" type="type1">
    <route edges="west_u west_c east_out"/>
  </flow>
  <flow begin="100" end="110" id="type_west_left_100" probability="0.0195777777778" type="type1">
    <route edges="west_u west_c north_out"/>
  </flow>
  <flow begin="100" end="110" id="type_east_right_100" probability="0.00833333333333" type="type1">
    <route edges="east_u east_c north_out"/>
  </flow>
  <flow begin="100" end="110" id="type_east_through_100" probability="0.00416666666667" type="type1">
    <route edges="east_u east_c west_out"/>
  </flow>
  <flow begin="100" end="110" id="type_east_left_100" probability="0.0195777777778" type="type1">
    <route edges="east_u east_c south_out"/>
  </flow>
  <flow begin="100" end="110" id="type_north_right_100" probability="0.00833333333333" type="type1">
    <route edges="north_u north_c west_out"/>
  </flow>
  <flow begin="100" end="110" id="type_north_through_100" probability="0.00416666666667" type="type1">
    <route edges="north_u north_c south_out"/>
  </flow>
  <flow begin="100" end="110" id="type_north_left_100" probability="0.0195777777778" type="type1">
    <route edges="north_u north_c east_out"/>
  </flow>
  <flow begin="100" end="110" id="type_south_right_100" probability="0.00833333333333" type="type1">
    <route edges="south_u south_c east_out"/>
  </flow>
  <flow begin="100" end="110" id="type_south_through_100" probability="0.00416666666667" type="type1">
    <route edges="south_u south_c north_out"/>
  </flow>
  <flow begin="100" end="110" id="type_south_left_100" probability="0.0195777777778" type="type1">
    <route edges="south_u south_c west_out"/>
  </flow>
  <flow begin="110" end="120" id="type_west_right_110" probability="0.009" type="type1">
    <route edges="west_u west_c south_out"/>
  </flow>
  <flow begin="110" end="120" id="type_west_through_110" probability="0.00416666666667" type="type1">
    <route edges="west_u west_c east_out"/>
  </flow>
  <flow begin="110" end="120" id="type_west_left_110" probability="0.0446444444444" type="type1">
    <route edges="west_u west_c north_out"/>
  </flow>
  <flow begin="110" end="120" id="type_east_right_110" probability="0.009" type="type1">
    <route edges="east_u east_c north_out"/>
  </flow>
  <flow begin="110" end="120" id="type_east_through_110" probability="0.00416666666667" type="type1">
    <route edges="east_u east_c west_out"/>
  </flow>
  <flow begin="110" end="120" id="type_east_left_110" probability="0.0446444444444" type="type1">
    <route edges="east_u east_c south_out"/>
  </flow>
  <flow begin="110" end="120" id="type_north_right_110" probability="0.009" type="type1">
    <route edges="north_u north_c west_out"/>
  </flow>
  <flow begin="110" end="120" id="type_north_through_110" probability="0.00416666666667" type="type1">
    <route edges="north_u north_c south_out"/>
  </flow>
  <flow begin="110" end="120" id="type_north_left_110" probability="0.0446444444444" type="type1">
    <route edges="north_u north_c east_out"/>
  </flow>
  <flow begin="110" end="120" id="type_south_right_110" probability="0.009" type="type1">
    <route edges="south_u south_c east_out"/>
  </flow>
  <flow begin="110" end="120" id="type_south_through_110" probability="0.00416666666667" type="type1">
    <route edges="south_u south_c north_out"/>
  </flow>
  <flow begin="110" end="120" id="type_south_left_110" probability="0.0446444444444" type="type1">
    <route edges="south_u south_c west_out"/>
  </flow>
  <flow begin="120" end="130" id="type_west_right_120" probability="0.0130311111111" type="type1">
    <route edges="west_u west_c south_out"/>
  </flow>
  <flow begin="120" end="130" id="type_west_through_120" probability="0.00416666666667" type="type1">
    <route edges="west_u west_c east_out"/>
  </flow>
  <flow begin="120" end="130" id="type_west_left_120" probability="0.0703555555556" type="type1">
    <route edges="west_u west_c north_out"/>
  </flow>
  <flow begin="120" end="130" id="type_east_right_120" probability="0.0130311111111" type="type1">
    <route edges="east_u east_c north_out"/>
  </flow>
  <flow begin="120" end="130" id="type_east_through_120" probability="0.00416666666667" type="type1">
    <route edges="east_u east_c west_out"/>
  </flow>
  <flow begin="120" end="130" id="type_east_left_120" probability="0.0703555555556" type="type1">
    <route edges="east_u east_c south_out"/>
  </flow>
  <flow begin="120" end="130" id="type_north_right_120" probability="0.0130311111111" type="type1">
    <route edges="north_u north_c west_out"/>
  </flow>
  <flow begin="120" end="130" id="type_north_through_120" probability="0.00416666666667" type="type1">
    <route edges="north_u north_c south_out"/>
  </flow>
  <flow begin="120" end="130" id="type_north_left_120" probability="0.0703555555556" type="type1">
    <route edges="north_u north_c east_out"/>
  </flow>
  <flow begin="120" end="130" id="type_south_right_120" probability="0.0130311111111" type="type1">
    <route edges="south_u south_c east_out"/>
  </flow>
  <flow begin="120" end="130" id="type_south_through_120" probability="0.00416666666667" type="type1">
    <route edges="south_u south_c north_out"/>
  </flow>
  <flow begin="120" end="130" id="type_south_left_120" probability="0.0703555555556" type="type1">
    <route edges="south_u south_c west_out"/>
  </flow>
  <flow begin="130" end="140" id="type_west_right_130" probability="0.0166577777778" type="type1">
    <route edges="west_u west_c south_out"/>
  </flow>
  <flow begin="130" end="140" id="type_west_through_130" probability="0.00416666666667" type="type1">
    <route edges="west_u west_c east_out"/>
  </flow>
  <flow begin="130" end="140" id="type_west_left_130" probability="0.0927555555556" type="type1">
    <route edges="west_u west_c north_out"/>
  </flow>
  <flow begin="130" end="140" id="type_east_right_130" probability="0.0166577777778" type="type1">
    <route edges="east_u east_c north_out"/>
  </flow>
  <flow begin="130" end="140" id="type_east_through_130" probability="0.00416666666667" type="type1">
    <route edges="east_u east_c west_out"/>
  </flow>
  <flow begin="130" end="140" id="type_east_left_130" probability="0.0927555555556" type="type1">
    <route edges="east_u east_c south_out"/>
  </flow>
  <flow begin="130" end="140" id="type_north_right_130" probability="0.0166577777778" type="type1">
    <route edges="north_u north_c west_out"/>
  </flow>
  <flow begin="130" end="140" id="type_north_through_130" probability="0.00416666666667" type="type1">
    <route edges="north_u north_c south_out"/>
  </flow>
  <flow begin="130" end="140" id="type_north_left_130" probability="0.0927555555556" type="type1">
    <route edges="north_u north_c east_out"/>
  </flow>
  <flow begin="130" end="140" id="type_south_right_130" probability="0.0166577777778" type="type1">
    <route edges="south_u south_c east_out"/>
  </flow>
  <flow begin="130" end="140" id="type_south_through_130" probability="0.00416666666667" type="type1">
    <route edges="south_u south_c north_out"/>
  </flow>
  <flow begin="130" end="140" id="type_south_left_130" probability="0.0927555555556" type="type1">
    <route edges="south_u south_c west_out"/>
  </flow>
  <flow begin="140" end="150" id="type_west_right_140" probability="0.0200088888889" type="type1">
    <route edges="west_u west_c south_out"/>
  </flow>
  <flow begin="140" end="150" id="type_west_through_140" probability="0.00416666666667" type="type1">
    <route edges="west_u west_c east_out"/>
  </flow>
  <flow begin="140" end="150" id="type_west_left_140" probability="0.115577777778" type="type1">
    <route edges="west_u west_c north_out"/>
  </flow>
  <flow begin="140" end="150" id="type_east_right_140" probability="0.0200088888889" type="type1">
    <route edges="east_u east_c north_out"/>
  </flow>
  <flow begin="140" end="150" id="type_east_through_140" probability="0.00416666666667" type="type1">
    <route edges="east_u east_c west_out"/>
  </flow>
  <flow begin="140" end="150" id="type_east_left_140" probability="0.115577777778" type="type1">
    <route edges="east_u east_c south_out"/>
  </flow>
  <flow begin="140" end="150" id="type_north_right_140" probability="0.0200088888889" type="type1">
    <route edges="north_u north_c west_out"/>
  </flow>
  <flow begin="140" end="150" id="type_north_through_140" probability="0.00416666666667" type="type1">
    <route edges="north_u north_c south_out"/>
  </flow>
  <flow begin="140" end="150" id="type_north_left_140" probability="0.115577777778" type="type1">
    <route edges="north_u north_c east_out"/>
  </flow>
  <flow begin="140" end="150" id="type_south_right_140" probability="0.0200088888889" type="type1">
    <route edges="south_u south_c east_out"/>
  </flow>
  <flow begin="140" end="150" id="type_south_through_140" probability="0.00416666666667" type="type1">
    <route edges="south_u south_c north_out"/>
  </flow>
  <flow begin="140" end="150" id="type_south_left_140" probability="0.115577777778" type="type1">
    <route edges="south_u south_c west_out"/>
  </flow>
  <flow begin="150" end="160" id="type_west_right_150" probability="0.0225688888889" type="type1">
    <route edges="west_u west_c south_out"/>
  </flow>
  <flow begin="150" end="160" id="type_west_through_150" probability="0.00416666666667" type="type1">
    <route edges="west_u west_c east_out"/>
  </flow>
  <flow begin="150" end="160" id="type_west_left_150" probability="0.135311111111" type="type1">
    <route edges="west_u west_c north_out"/>
  </flow>
  <flow begin="150" end="160" id="type_east_right_150" probability="0.0225688888889" type="type1">
    <route edges="east_u east_c north_out"/>
  </flow>
  <flow begin="150" end="160" id="type_east_through_150" probability="0.00416666666667" type="type1">
    <route edges="east_u east_c west_out"/>
  </flow>
  <flow begin="150" end="160" id="type_east_left_150" probability="0.135311111111" type="type1">
    <route edges="east_u east_c south_out"/>
  </flow>
  <flow begin="150" end="160" id="type_north_right_150" probability="0.0225688888889" type="type1">
    <route edges="north_u north_c west_out"/>
  </flow>
  <flow begin="150" end="160" id="type_north_through_150" probability="0.00416666666667" type="type1">
    <route edges="north_u north_c south_out"/>
  </flow>
  <flow begin="150" end="160" id="type_north_left_150" probability="0.135311111111" type="type1">
    <route edges="north_u north_c east_out"/>
  </flow>
  <flow begin="150" end="160" id="type_south_right_150" probability="0.0225688888889" type="type1">
    <route edges="south_u south_c east_out"/>
  </flow>
  <flow begin="150" end="160" id="type_south_through_150" probability="0.00416666666667" type="type1">
    <route edges="south_u south_c north_out"/>
  </flow>
  <flow begin="150" end="160" id="type_south_left_150" probability="0.135311111111" type="type1">
    <route edges="south_u south_c west_out"/>
  </flow>
  <flow begin="160" end="170" id="type_west_right_160" probability="0.0247644444444" type="type1">
    <route edges="west_u west_c south_out"/>
  </flow>
  <flow begin="160" end="170" id="type_west_through_160" probability="0.00416666666667" type="type1">
    <route edges="west_u west_c east_out"/>
  </flow>