<?xml version="1.0" encoding="UTF-8"?>

<!-- generated on Thu Dec  5 21:39:09 2019 by SUMO netconvert Version 0.32.0
<?xml version="1.0" encoding="UTF-8"?>

<configuration xmlns:xsi="http://www.w3.org/2001/XMLSchema-instance" xsi:noNamespaceSchemaLocation="http://sumo.dlr.de/xsd/netconvertConfiguration.xsd">

    <input>
        <node-files value="ArterialIntersection.nod.xml"/>
        <edge-files value="ArterialIntersection.edg.xml"/>
        <connection-files value="ArterialIntersection.con.xml"/>
        <tllogic-files value="ArterialIntersection.tll.xml"/>
    </input>

    <output>
        <output-file value="ArterialIntersection.net.xml"/>
    </output>

    <tls_building>
        <tls.guess-signals value="false"/>
    </tls_building>

</configuration>
-->

<net version="0.27" xmlns:xsi="http://www.w3.org/2001/XMLSchema-instance" xsi:noNamespaceSchemaLocation="http://sumo.dlr.de/xsd/net_file.xsd">

    <location netOffset="0.00,0.00" convBoundary="0.00,0.00,821.00,821.00" origBoundary="0.00,0.00,821.00,821.00" projParameter="!"/>

    <edge id=":east_input_0" function="internal">
        <lane id=":east_input_0_0" index="0" speed="40.00" length="5.11" shape="821.00,408.75 822.31,409.62 822.75,410.50 822.31,411.38 821.00,412.25"/>
    </edge>
    <edge id=":east_interface_0" function="internal">
        <lane id=":east_interface_0_0" index="0" speed="40.00" length="3.54" shape="522.50,415.75 519.50,419.25"/>
        <lane id=":east_interface_0_1" index="1" speed="40.00" length="3.54" shape="522.50,415.75 519.50,415.75"/>
        <lane id=":east_interface_0_2" index="2" speed="40.00" length="3.54" shape="522.50,412.25 519.50,412.25"/>
    </edge>
    <edge id=":intersection_0" function="internal">
        <lane id=":intersection_0_0" index="0" speed="40.00" length="8.03" shape="401.75,422.35 401.56,419.46 400.98,417.40 400.01,416.16 398.65,415.75"/>
    </edge>
    <edge id=":intersection_1" function="internal">
        <lane id=":intersection_1_0" index="0" speed="40.00" length="11.26" shape="401.75,422.35 401.56,417.93 400.98,414.77 400.01,412.88 398.65,412.25"/>
    </edge>
    <edge id=":intersection_2" function="internal">
        <lane id=":intersection_2_0" index="0" speed="40.00" length="23.86" shape="405.25,422.35 405.25,398.65"/>
        <lane id=":intersection_2_1" index="1" speed="40.00" length="23.86" shape="405.25,422.35 405.80,415.00 407.00,409.76 408.20,404.89 408.75,398.65"/>
    </edge>
    <edge id=":intersection_4" function="internal">
        <lane id=":intersection_4_0" index="0" speed="40.00" length="14.36" shape="408.75,422.35 409.60,414.87 412.15,409.52 412.88,408.98"/>
    </edge>
    <edge id=":intersection_5" function="internal">
        <lane id=":intersection_5_0" index="0" speed="40.00" length="10.97" shape="408.75,422.35 409.60,416.40 412.15,412.15"/>
    </edge>
    <edge id=":intersection_24" function="internal">
        <lane id=":intersection_24_0" index="0" speed="40.00" length="10.46" shape="412.88,408.98 416.40,406.32 422.35,405.25"/>
    </edge>
    <edge id=":intersection_25" function="internal">
        <lane id=":intersection_25_0" index="0" speed="40.00" length="10.97" shape="412.15,412.15 416.40,409.60 422.35,408.75"/>
    </edge>
    <edge id=":intersection_6" function="internal">
        <lane id=":intersection_6_0" index="0" speed="40.00" length="8.03" shape="422.35,419.25 419.46,419.44 417.40,420.02 416.16,420.99 415.75,422.35"/>
    </edge>
    <edge id=":intersection_7" function="internal">
        <lane id=":intersection_7_0" index="0" speed="40.00" length="11.26" shape="422.35,419.25 417.93,419.44 414.77,420.02 412.88,420.99 412.25,422.35"/>
    </edge>
    <edge id=":intersection_8" function="internal">
        <lane id=":intersection_8_0" index="0" speed="40.00" length="23.86" shape="422.35,415.75 398.65,415.75"/>
        <lane id=":intersection_8_1" index="1" speed="40.00" length="23.86" shape="422.35,415.75 415.00,415.20 409.76,414.00 404.89,412.80 398.65,412.25"/>
    </edge>
    <edge id=":intersection_10" function="internal">
        <lane id=":intersection_10_0" index="0" speed="40.00" length="14.36" shape="422.35,412.25 414.87,411.40 409.52,408.85 408.98,408.12"/>
    </edge>
    <edge id=":intersection_11" function="internal">
        <lane id=":intersection_11_0" index="0" speed="40.00" length="10.97" shape="422.35,412.25 416.40,411.40 412.15,408.85"/>
    </edge>
    <edge id=":intersection_26" function="internal">
        <lane id=":intersection_26_0" index="0" speed="40.00" length="10.46" shape="408.98,408.12 406.32,404.60 405.25,398.65"/>
    </edge>
    <edge id=":intersection_27" function="internal">
        <lane id=":intersection_27_0" index="0" speed="40.00" length="10.97" shape="412.15,408.85 409.60,404.60 408.75,398.65"/>
    </edge>
    <edge id=":intersection_12" function="internal">
        <lane id=":intersection_12_0" index="0" speed="40.00" length="8.03" shape="419.25,398.65 419.44,401.54 420.02,403.60 420.99,404.84 422.35,405.25"/>
    </edge>
    <edge id=":intersection_13" function="internal">
        <lane id=":intersection_13_0" index="0" speed="40.00" length="11.26" shape="419.25,398.65 419.44,403.07 420.02,406.23 420.99,408.12 422.35,408.75"/>
    </edge>
    <edge id=":intersection_14" function="internal">
        <lane id=":intersection_14_0" index="0" speed="40.00" length="23.86" shape="415.75,398.65 415.75,422.35"/>
        <lane id=":intersection_14_1" index="1" speed="40.00" length="23.86" shape="415.75,398.65 415.20,406.00 414.00,411.24 412.80,416.11 412.25,422.35"/>
    </edge>
    <edge id=":intersection_16" function="internal">
        <lane id=":intersection_16_0" index="0" speed="40.00" length="14.36" shape="412.25,398.65 411.40,406.13 408.85,411.48 408.12,412.02"/>
    </edge>
    <edge id=":intersection_17" function="internal">
        <lane id=":intersection_17_0" index="0" speed="40.00" length="10.97" shape="412.25,398.65 411.40,404.60 408.85,408.85"/>
    </edge>
    <edge id=":intersection_28" function="internal">
        <lane id=":intersection_28_0" index="0" speed="40.00" length="10.46" shape="408.12,412.02 404.60,414.68 398.65,415.75"/>
    </edge>
    <edge id=":intersection_29" function="internal">
        <lane id=":intersection_29_0" index="0" speed="40.00" length="10.97" shape="408.85,408.85 404.60,411.40 398.65,412.25"/>
    </edge>
    <edge id=":intersection_18" function="internal">
        <lane id=":intersection_18_0" index="0" speed="40.00" length="8.03" shape="398.65,401.75 401.54,401.56 403.60,400.98 404.84,400.01 405.25,398.65"/>
    </edge>
    <edge id=":intersection_19" function="internal">
        <lane id=":intersection_19_0" index="0" speed="40.00" length="11.26" shape="398.65,401.75 403.07,401.56 406.23,400.98 408.12,400.01 408.75,398.65"/>
    </edge>
    <edge id=":intersection_20" function="internal">
        <lane id=":intersection_20_0" index="0" speed="40.00" length="23.86" shape="398.65,405.25 422.35,405.25"/>
        <lane id=":intersection_20_1" index="1" speed="40.00" length="23.86" shape="398.65,405.25 406.00,405.80 411.24,407.00 416.11,408.20 422.35,408.75"/>
    </edge>
    <edge id=":intersection_22" function="internal">
        <lane id=":intersection_22_0" index="0" speed="40.00" length="14.36" shape="398.65,408.75 406.13,409.60 411.48,412.15 412.02,412.88"/>
    </edge>
    <edge id=":intersection_23" function="internal">
        <lane id=":intersection_23_0" index="0" speed="40.00" length="10.97" shape="398.65,408.75 404.60,409.60 408.85,412.15"/>
    </edge>
    <edge id=":intersection_30" function="internal">
        <lane id=":intersection_30_0" index="0" speed="40.00" length="10.46" shape="412.02,412.88 414.68,416.40 415.75,422.35"/>
    </edge>
    <edge id=":intersection_31" function="internal">
        <lane id=":intersection_31_0" index="0" speed="40.00" length="10.97" shape="408.85,412.15 411.40,416.40 412.25,422.35"/>
    </edge>
    <edge id=":north_input_0" function="internal">
        <lane id=":north_input_0_0" index="0" speed="40.00" length="5.11" shape="412.25,821.00 411.38,822.31 410.50,822.75 409.62,822.31 408.75,821.00"/>
    </edge>
    <edge id=":north_interface_0" function="internal">
        <lane id=":north_interface_0_0" index="0" speed="40.00" length="3.54" shape="405.25,522.50 401.75,519.50"/>
        <lane id=":north_interface_0_1" index="1" speed="40.00" length="3.54" shape="405.25,522.50 405.25,519.50"/>
        <lane id=":north_interface_0_2" index="2" speed="40.00" length="3.54" shape="408.75,522.50 408.75,519.50"/>
    </edge>
    <edge id=":south_input_0" function="internal">
        <lane id=":south_input_0_0" index="0" speed="40.00" length="5.11" shape="408.75,0.00 409.62,-1.31 410.50,-1.75 411.38,-1.31 412.25,0.00"/>
    </edge>
    <edge id=":south_interface_0" function="internal">
        <lane id=":south_interface_0_0" index="0" speed="40.00" length="3.54" shape="415.75,298.50 419.25,301.50"/>
        <lane id=":south_interface_0_1" index="1" speed="40.00" length="3.54" shape="415.75,298.50 415.75,301.50"/>
        <lane id=":south_interface_0_2" index="2" speed="40.00" length="3.54" shape="412.25,298.50 412.25,301.50"/>
    </edge>
    <edge id=":west_input_0" function="internal">
        <lane id=":west_input_0_0" index="0" speed="40.00" length="5.11" shape="0.00,412.25 -1.31,411.38 -1.75,410.50 -1.31,409.62 0.00,408.75"/>
    </edge>
    <edge id=":west_interface_0" function="internal">
        <lane id=":west_interface_0_0" index="0" speed="40.00" length="3.54" shape="298.50,405.25 301.50,401.75"/>
        <lane id=":west_interface_0_1" index="1" speed="40.00" length="3.54" shape="298.50,405.25 301.50,405.25"/>
        <lane id=":west_interface_0_2" index="2" speed="40.00" length="3.54" shape="298.50,408.75 301.50,408.75"/>
    </edge>

    <edge id="east_c" from="east_interface" to="intersection" priority="-1">
        <lane id="east_c_0" index="0" speed="40.00" length="97.15" customShape="1" shape="519.50,419.25 422.35,419.25"/>
        <lane id="east_c_1" index="1" speed="40.00" length="97.15" customShape="1" shape="519.50,415.75 422.35,415.75"/>
        <lane id="east_c_2" index="2" speed="40.00" length="97.15" customShape="1" shape="519.50,412.25 422.35,412.25"/>
    </edge>
    <edge id="east_out" from="intersection" to="east_input" priority="-1" length="400.00">
        <lane id="east_out_0" index="0" speed="40.00" length="400.00" customShape="1" shape="422.35,405.25 821.00,405.25"/>
        <lane id="east_out_1" index="1" speed="40.00" length="400.00" customShape="1" shape="422.35,408.75 821.00,408.75"/>
    </edge>
    <edge id="east_u" from="east_input" to="east_interface" priority="-1">
        <lane id="east_u_0" index="0" speed="40.00" length="298.50" customShape="1" shape="821.00,415.75 522.50,415.75"/>
        <lane id="east_u_1" index="1" speed="40.00" length="298.50" customShape="1" shape="821.00,412.25 522.50,412.25"/>
    </edge>
    <edge id="north_c" from="north_interface" to="intersection" priority="-1">
        <lane id="north_c_0" index="0" speed="40.00" length="97.15" customShape="1" shape="401.75,519.50 401.75,422.35"/>
        <lane id="north_c_1" index="1" speed="40.00" length="97.15" customShape="1" shape="405.25,519.50 405.25,422.35"/>
        <lane id="north_c_2" index="2" speed="40.00" length="97.15" customShape="1" shape="408.75,519.50 408.75,422.35"/>
    </edge>
    <edge id="north_out" from="intersection" to="north_input" priority="-1" length="400.00">
        <lane id="north_out_0" index="0" speed="40.00" length="400.00" customShape="1" shape="415.75,422.35 415.75,821.00"/>
        <lane id="north_out_1" index="1" speed="40.00" length="400.00" customShape="1" shape="412.25,422.35 412.25,821.00"/>
    </edge>
    <edge id="north_u" from="north_input" to="north_interface" priority="-1">
        <lane id="north_u_0" index="0" speed="40.00" length="298.50" customShape="1" shape="405.25,821.00 405.25,522.50"/>
        <lane id="north_u_1" index="1" speed="40.00" length="298.50" customShape="1" shape="408.75,821.00 408.75,522.50"/>
    </edge>
    <edge id="south_c" from="south_interface" to="intersection" priority="-1">
        <lane id="south_c_0" index="0" speed="40.00" length="97.15" customShape="1" shape="419.25,301.50 419.25,398.65"/>
        <lane id="south_c_1" index="1" speed="40.00" length="97.15" customShape="1" shape="415.75,301.50 415.75,398.65"/>
        <lane id="south_c_2" index="2" speed="40.00" length="97.15" customShape="1" shape="412.25,301.50 412.25,398.65"/>
    </edge>
    <edge id="south_out" from="intersection" to="south_input" priority="-1" length="400.00">
        <lane id="south_out_0" index="0" speed="40.00" length="400.00" customShape="1" shape="405.25,398.65 405.25,0.00"/>
        <lane id="south_out_1" index="1" speed="40.00" length="400.00" customShape="1" shape="408.75,398.65 408.75,0.00"/>
    </edge>
    <edge id="south_u" from="south_input" to="south_interface" priority="-1">
        <lane id="south_u_0" index="0" speed="40.00" length="298.50" customShape="1" shape="415.75,0.00 415.75,298.50"/>
        <lane id="south_u_1" index="1" speed="40.00" length="298.50" customShape="1" shape="412.25,0.00 412.25,298.50"/>
    </edge>
    <edge id="west_c" from="west_interface" to="intersection" priority="-1">
        <lane id="west_c_0" index="0" speed="40.00" length="97.15" customShape="1" shape="301.50,401.75 398.65,401.75"/>
        <lane id="west_c_1" index="1" speed="40.00" length="97.15" customShape="1" shape="301.50,405.25 398.65,405.25"/>
        <lane id="west_c_2" index="2" speed="40.00" length="97.15" customShape="1" shape="301.50,408.75 398.65,408.75"/>
    </edge>
    <edge id="west_out" from="intersection" to="west_input" priority="-1" length="400.00">
        <lane id="west_out_0" index="0" speed="40.00" length="400.00" customShape="1" shape="398.65,415.75 0.00,415.75"/>
        <lane id="west_out_1" index="1" speed="40.00" length="400.00" customShape="1" shape="398.65,412.25 0.00,412.25"/>
    </edge>
    <edge id="west_u" from="west_input" to="west_interface" priority="-1">
        <lane id="west_u_0" index="0" speed="40.00" length="298.50" customShape="1" shape="0.00,405.25 298.50,405.25"/>
        <lane id="west_u_1" index="1" speed="40.00" length="298.50" customShape="1" shape="0.00,408.75 298.50,408.75"/>
    </edge>

    <tlLogic id="intersection" type="static" programID="0" offset="0">
        <phase duration="33" state="GGGGggrrrrrrGGGGggrrrrrr"/>
        <phase duration="3" state="yyyyggrrrrrryyyyggrrrrrr"/>
        <phase duration="6" state="rrrrGGrrrrrrrrrrGGrrrrrr"/>
        <phase duration="3" state="rrrryyrrrrrrrrrryyrrrrrr"/>
        <phase duration="33" state="rrrrrrGGGGggrrrrrrGGGGgg"/>
        <phase duration="3" state="rrrrrryyyyggrrrrrryyyygg"/>
        <phase duration="6" state="rrrrrrrrrrGGrrrrrrrrrrGG"/>
        <phase duration="3" state="rrrrrrrrrryyrrrrrrrrrryy"/>
    </tlLogic>
    <tlLogic id="intersection" type="static" programID="my_program" offset="0">
        <phase duration="37.75" state="GGrrrrGGrrrrGGrrrrGGgggg"/>
        <phase duration="3" state="GGrrrrGGrrrrGGrrrrGGyyyy"/>
        <phase duration="41.33" state="GGrrrrGGrrrrGGggggGGrrrr"/>
        <phase duration="3" state="GGrrrrGGrrrrGGyyyyGGrrrr"/>
        <phase duration="21.29" state="GGggggGGrrrrGGrrrrGGrrrr"/>
        <phase duration="3" state="GGyyyyGGrrrrGGrrrrGGrrrr"/>
        <phase duration="22.08" state="GGrrrrGGggggGGrrrrGGrrrr"/>
        <phase duration="3" state="GGrrrrGGyyyyGGrrrrGGrrrr"/>
        <phase duration="47.61" state="GGrrrrGGrrrrGGrrrrGGgggg"/>
        <phase duration="3" state="GGrrrrGGrrrrGGrrrrGGyyyy"/>
        <phase duration="36.40" state="GGrrrrGGrrrrGGggggGGrrrr"/>
        <phase duration="3" state="GGrrrrGGrrrrGGyyyyGGrrrr"/>
        <phase duration="42.82" state="GGggggGGrrrrGGrrrrGGrrrr"/>
        <phase duration="3" state="GGyyyyGGrrrrGGrrrrGGrrrr"/>
        <phase duration="29.54" state="GGrrrrGGggggGGrrrrGGrrrr"/>
        <phase duration="3" state="GGrrrrGGyyyyGGrrrrGGrrrr"/>
        <phase duration="28.93" state="GGrrrrGGrrrrGGrrrrGGgggg"/>
        <phase duration="3" state="GGrrrrGGrrrrGGrrrrGGyyyy"/>
        <phase duration="41.88" state="GGrrrrGGrrrrGGggggGGrrrr"/>
        <phase duration="3" state="GGrrrrGGrrrrGGyyyyGGrrrr"/>
        <phase duration="30.70" state="GGggggGGrrrrGGrrrrGGrrrr"/>
        <phase duration="3" state="GGyyyyGGrrrrGGrrrrGGrrrr"/>
        <phase duration="40.50" state="GGrrrrGGggggGGrrrrGGrrrr"/>
        <phase duration="3" state="GGrrrrGGyyyyGGrrrrGGrrrr"/>
        <phase duration="33.89" state="GGrrrrGGrrrrGGrrrrGGgggg"/>
        <phase duration="3" state="GGrrrrGGrrrrGGrrrrGGyyyy"/>
        <phase duration="23.26" state="GGrrrrGGrrrrGGggggGGrrrr"/>
        <phase duration="3" state="GGrrrrGGrrrrGGyyyyGGrrrr"/>
        <phase duration="29.23" state="GGggggGGrrrrGGrrrrGGrrrr"/>
        <phase duration="3" state="GGyyyyGGrrrrGGrrrrGGrrrr"/>
        <phase duration="27.45" state="GGrrrrGGggggGGrrrrGGrrrr"/>
        <phase duration="3" state="GGrrrrGGyyyyGGrrrrGGrrrr"/>
        <phase duration="25.47" state="GGrrrrGGrrrrGGrrrrGGgggg"/>
        <phase duration="3" state="GGrrrrGGrrrrGGrrrrGGyyyy"/>
        <phase duration="44.72" state="GGrrrrGGrrrrGGggggGGrrrr"/>
        <phase duration="3" state="GGrrrrGGrrrrGGyyyyGGrrrr"/>
        <phase duration="37.48" state="GGggggGGrrrrGGrrrrGGrrrr"/>
        <phase duration="3" state="GGyyyyGGrrrrGGrrrrGGrrrr"/>
        <phase duration="31.60" state="GGrrrrGGggggGGrrrrGGrrrr"/>
        <phase duration="3" state="GGrrrrGGyyyyGGrrrrGGrrrr"/>
        <phase duration="25.80" state="GGrrrrGGrrrrGGrrrrGGgggg"/>
        <phase duration="3" state="GGrrrrGGrrrrGGrrrrGGyyyy"/>
        <phase duration="45.57" state="GGrrrrGGrrrrGGggggGGrrrr"/>
        <phase duration="3" state="GGrrrrGGrrrrGGyyyyGGrrrr"/>
        <phase duration="49.40" state="GGggggGGrrrrGGrrrrGGrrrr"/>
        <phase duration="3" state="GGyyyyGGrrrrGGrrrrGGrrrr"/>
        <phase duration="46.40" state="GGrrrrGGggggGGrrrrGGrrrr"/>
        <phase duration="3" state="GGrrrrGGyyyyGGrrrrGGrrrr"/>
        <phase duration="22.84" state="GGrrrrGGrrrrGGrrrrGGgggg"/>
        <phase duration="3" state="GGrrrrGGrrrrGGrrrrGGyyyy"/>
        <phase duration="45.49" state="GGrrrrGGrrrrGGggggGGrrrr"/>
        <phase duration="3" state="GGrrrrGGrrrrGGyyyyGGrrrr"/>
        <phase duration="44.52" state="GGggggGGrrrrGGrrrrGGrrrr"/>
        <phase duration="3" state="GGyyyyGGrrrrGGrrrrGGrrrr"/>
        <phase duration="37.42" state="GGrrrrGGggggGGrrrrGGrrrr"/>
        <phase duration="3" state="GGrrrrGGyyyyGGrrrrGGrrrr"/>
        <phase duration="26.96" state="GGrrrrGGrrrrGGrrrrGGgggg"/>
        <phase duration="3" state="GGrrrrGGrrrrGGrrrrGGyyyy"/>
        <phase duration="47.70" state="GGrrrrGGrrrrGGggggGGrrrr"/>
        <phase duration="3" state="GGrrrrGGrrrrGGyyyyGGrrrr"/>
        <phase duration="45.90" state="GGggggGGrrrrGGrrrrGGrrrr"/>
        <phase duration="3" state="GGyyyyGGrrrrGGrrrrGGrrrr"/>
        <phase duration="34.94" state="GGrrrrGGggggGGrrrrGGrrrr"/>
        <phase duration="3" state="GGrrrrGGyyyyGGrrrrGGrrrr"/>
        <phase duration="40.44" state="GGrrrrGGrrrrGGrrrrGGgggg"/>
        <phase duration="3" state="GGrrrrGGrrrrGGrrrrGGyyyy"/>
        <phase duration="21.70" state="GGrrrrGGrrrrGGggggGGrrrr"/>
        <phase duration="3" state="GGrrrrGGrrrrGGyyyyGGrrrr"/>
        <phase duration="39.10" state="GGggggGGrrrrGGrrrrGGrrrr"/>
        <phase duration="3" state="GGyyyyGGrrrrGGrrrrGGrrrr"/>
        <phase duration="46.65" state="GGrrrrGGggggGGrrrrGGrrrr"/>
        <phase duration="3" state="GGrrrrGGyyyyGGrrrrGGrrrr"/>
        <phase duration="33.87" state="GGrrrrGGrrrrGGrrrrGGgggg"/>
        <phase duration="3" state="GGrrrrGGrrrrGGrrrrGGyyyy"/>
        <phase duration="25.63" state="GGrrrrGGrrrrGGggggGGrrrr"/>
        <phase duration="3" state="GGrrrrGGrrrrGGyyyyGGrrrr"/>
        <phase duration="44.85" state="GGggggGGrrrrGGrrrrGGrrrr"/>
        <phase duration="3" state="GGyyyyGGrrrrGGrrrrGGrrrr"/>
        <phase duration="23.24" state="GGrrrrGGggggGGrrrrGGrrrr"/>
        <phase duration="3" state="GGrrrrGGyyyyGGrrrrGGrrrr"/>
        <phase duration="32.59" state="GGrrrrGGrrrrGGrrrrGGgggg"/>
        <phase duration="3" state="GGrrrrGGrrrrGGrrrrGGyyyy"/>
        <phase duration="23.54" state="GGrrrrGGrrrrGGggggGGrrrr"/>
        <phase duration="3" state="GGrrrrGGrrrrGGyyyyGGrrrr"/>
        <phase duration="20.82" state="GGggggGGrrrrGGrrrrGGrrrr"/>
        <phase duration="3" state="GGyyyyGGrrrrGGrrrrGGrrrr"/>
        <phase duration="41.00" state="GGrrrrGGggggGGrrrrGGrrrr"/>
        <phase duration="3" state="GGrrrrGGyyyyGGrrrrGGrrrr"/>
        <phase duration="37.53" state="GGrrrrGGrrrrGGrrrrGGgggg"/>
        <phase duration="3" state="GGrrrrGGrrrrGGrrrrGGyyyy"/>
        <phase duration="28.58" state="GGrrrrGGrrrrGGggggGGrrrr"/>
        <phase duration="3" state="GGrrrrGGrrrrGGyyyyGGrrrr"/>
        <phase duration="41.13" state="GGggggGGrrrrGGrrrrGGrrrr"/>
        <phase duration="3" state="GGyyyyGGrrrrGGrrrrGGrrrr"/>
        <phase duration="31.14" state="GGrrrrGGggggGGrrrrGGrrrr"/>
        <phase duration="3" state="GGrrrrGGyyyyGGrrrrGGrrrr"/>
        <phase duration="29.02" state="GGrrrrGGrrrrGGrrrrGGgggg"/>
        <phase duration="3" state="GGrrrrGGrrrrGGrrrrGGyyyy"/>
        <phase duration="31.36" state="GGrrrrGGrrrrGGggggGGrrrr"/>
        <phase duration="3" state="GGrrrrGGrrrrGGyyyyGGrrrr"/>
        <phase duration="29.73" state="GGggggGGrrrrGGrrrrGGrrrr"/>
        <phase duration="3" state="GGyyyyGGrrrrGGrrrrGGrrrr"/>
        <phase duration="27.65" state="GGrrrrGGggggGGrrrrGGrrrr"/>
        <phase duration="3" state="GGrrrrGGyyyyGGrrrrGGrrrr"/>
        <phase duration="36.43" state="GGrrrrGGrrrrGGrrrrGGgggg"/>
        <phase duration="3" state="GGrrrrGGrrrrGGrrrrGGyyyy"/>
        <phase duration="46.48" state="GGrrrrGGrrrrGGggggGGrrrr"/>
        <phase duration="3" state="GGrrrrGGrrrrGGyyyyGGrrrr"/>
        <phase duration="25.51" state="GGggggGGrrrrGGrrrrGGrrrr"/>
        <phase duration="3" state="GGyyyyGGrrrrGGrrrrGGrrrr"/>
        <phase duration="26.05" state="GGrrrrGGggggGGrrrrGGrrrr"/>
        <phase duration="3" state="GGrrrrGGyyyyGGrrrrGGrrrr"/>
        <phase duration="41.28" state="GGrrrrGGrrrrGGrrrrGGgggg"/>
        <phase duration="3" state="GGrrrrGGrrrrGGrrrrGGyyyy"/>
        <phase duration="30.33" state="GGrrrrGGrrrrGGggggGGrrrr"/>
        <phase duration="3" state="GGrrrrGGrrrrGGyyyyGGrrrr"/>
        <phase duration="49.45" state="GGggggGGrrrrGGrrrrGGrrrr"/>
        <phase duration="3" state="GGyyyyGGrrrrGGrrrrGGrrrr"/>
        <phase duration="41.44" state="GGrrrrGGggggGGrrrrGGrrrr"/>
        <phase duration="3" state="GGrrrrGGyyyyGGrrrrGGrrrr"/>
        <phase duration="25.59" state="GGrrrrGGrrrrGGrrrrGGgggg"/>
        <phase duration="3" state="GGrrrrGGrrrrGGrrrrGGyyyy"/>
        <phase duration="24.96" state="GGrrrrGGrrrrGGggggGGrrrr"/>
        <phase duration="3" state="GGrrrrGGrrrrGGyyyyGGrrrr"/>
        <phase duration="48.48" state="GGggggGGrrrrGGrrrrGGrrrr"/>
        <phase duration="3" state="GGyyyyGGrrrrGGrrrrGGrrrr"/>
        <phase duration="28.18" state="GGrrrrGGggggGGrrrrGGrrrr"/>
        <phase duration="3" state="GGrrrrGGyyyyGGrrrrGGrrrr"/>
        <phase duration="35.45" state="GGrrrrGGrrrrGGrrrrGGgggg"/>
        <phase duration="3" state="GGrrrrGGrrrrGGrrrrGGyyyy"/>
        <phase duration="24.22" state="GGrrrrGGrrrrGGggggGGrrrr"/>
        <phase duration="3" state="GGrrrrGGrrrrGGyyyyGGrrrr"/>
        <phase duration="49.06" state="GGggggGGrrrrGGrrrrGGrrrr"/>
        <phase duration="3" state="GGyyyyGGrrrrGGrrrrGGrrrr"/>
        <phase duration="40.40" state="GGrrrrGGggggGGrrrrGGrrrr"/>
        <phase duration="3" state="GGrrrrGGyyyyGGrrrrGGrrrr"/>
        <phase duration="40.88" state="GGrrrrGGrrrrGGrrrrGGgggg"/>
        <phase duration="3" state="GGrrrrGGrrrrGGrrrrGGyyyy"/>
        <phase duration="40.28" state="GGrrrrGGrrrrGGggggGGrrrr"/>
        <phase duration="3" state="GGrrrrGGrrrrGGyyyyGGrrrr"/>
        <phase duration="43.69" state="GGggggGGrrrrGGrrrrGGrrrr"/>
        <phase duration="3" state="GGyyyyGGrrrrGGrrrrGGrrrr"/>
        <phase duration="38.43" state="GGrrrrGGggggGGrrrrGGrrrr"/>
        <phase duration="3" state="GGrrrrGGyyyyGGrrrrGGrrrr"/>
        <phase duration="48.44" state="GGrrrrGGrrrrGGrrrrGGgggg"/>
        <phase duration="3" state="GGrrrrGGrrrrGGrrrrGGyyyy"/>
        <phase duration="32.61" state="GGrrrrGGrrrrGGggggGGrrrr"/>
        <phase duration="3" state="GGrrrrGGrrrrGGyyyyGGrrrr"/>
        <phase duration="21.04" state="GGggggGGrrrrGGrrrrGGrrrr"/>
        <phase duration="3" state="GGyyyyGGrrrrGGrrrrGGrrrr"/>
        <phase duration="48.63" state="GGrrrrGGggggGGrrrrGGrrrr"/>
        <phase duration="3" state="GGrrrrGGyyyyGGrrrrGGrrrr"/>
        <phase duration="29.45" state="GGrrrrGGrrrrGGrrrrGGgggg"/>
        <phase duration="3" state="GGrrrrGGrrrrGGrrrrGGyyyy"/>
        <phase duration="22.41" state="GGrrrrGGrrrrGGggggGGrrrr"/>
        <phase duration="3" state="GGrrrrGGrrrrGGyyyyGGrrrr"/>
        <phase duration="27.67" state="GGggggGGrrrrGGrrrrGGrrrr"/>
        <phase duration="3" state="GGyyyyGGrrrrGGrrrrGGrrrr"/>
        <phase duration="38.74" state="GGrrrrGGggggGGrrrrGGrrrr"/>
        <phase duration="3" state="GGrrrrGGyyyyGGrrrrGGrrrr"/>
        <phase duration="44.73" state="GGrrrrGGrrrrGGrrrrGGgggg"/>
        <phase duration="3" state="GGrrrrGGrrrrGGrrrrGGyyyy"/>
        <phase duration="32.76" state="GGrrrrGGrrrrGGggggGGrrrr"/>
        <phase duration="3" state="GGrrrrGGrrrrGGyyyyGGrrrr"/>
        <phase duration="32.94" state="GGggggGGrrrrGGrrrrGGrrrr"/>
        <phase duration="3" state="GGyyyyGGrrrrGGrrrrGGrrrr"/>
        <phase duration="34.38" state="GGrrrrGGggggGGrrrrGGrrrr"/>
        <phase duration="3" state="GGrrrrGGyyyyGGrrrrGGrrrr"/>
        <phase duration="30.54" state="GGrrrrGGrrrrGGrrrrGGgggg"/>
        <phase duration="3" state="GGrrrrGGrrrrGGrrrrGGyyyy"/>
        <phase duration="41.08" state="GGrrrrGGrrrrGGggggGGrrrr"/>
        <phase duration="3" state="GGrrrrGGrrrrGGyyyyGGrrrr"/>
        <phase duration="44.81" state="GGggggGGrrrrGGrrrrGGrrrr"/>
        <phase duration="3" state="GGyyyyGGrrrrGGrrrrGGrrrr"/>
        <phase duration="38.86" state="GGrrrrGGggggGGrrrrGGrrrr"/>
        <phase duration="3" state="GGrrrrGGyyyyGGrrrrGGrrrr"/>
        <phase duration="34.94" state="GGrrrrGGrrrrGGrrrrGGgggg"/>
        <phase duration="3" state="GGrrrrGGrrrrGGrrrrGGyyyy"/>
        <phase duration="48.03" state="GGrrrrGGrrrrGGggggGGrrrr"/>
        <phase duration="3" state="GGrrrrGGrrrrGGyyyyGGrrrr"/>
        <phase duration="25.00" state="GGggggGGrrrrGGrrrrGGrrrr"/>
        <phase duration="3" state="GGyyyyGGrrrrGGrrrrGGrrrr"/>
        <phase duration="43.49" state="GGrrrrGGggggGGrrrrGGrrrr"/>
        <phase duration="3" state="GGrrrrGGyyyyGGrrrrGGrrrr"/>
        <phase duration="20.25" state="GGrrrrGGrrrrGGrrrrGGgggg"/>
        <phase duration="3" state="GGrrrrGGrrrrGGrrrrGGyyyy"/>
        <phase duration="40.77" state="GGrrrrGGrrrrGGggggGGrrrr"/>
        <phase duration="3" state="GGrrrrGGrrrrGGyyyyGGrrrr"/>
        <phase duration="34.51" state="GGggggGGrrrrGGrrrrGGrrrr"/>
        <phase duration="3" state="GGyyyyGGrrrrGGrrrrGGrrrr"/>
        <phase duration="21.46" state="GGrrrrGGggggGGrrrrGGrrrr"/>
        <phase duration="3" state="GGrrrrGGyyyyGGrrrrGGrrrr"/>
        <phase duration="42.80" state="GGrrrrGGrrrrGGrrrrGGgggg"/>
        <phase duration="3" state="GGrrrrGGrrrrGGrrrrGGyyyy"/>
        <phase duration="37.12" state="GGrrrrGGrrrrGGggggGGrrrr"/>
        <phase duration="3" state="GGrrrrGGrrrrGGyyyyGGrrrr"/>
        <phase duration="21.39" state="GGggggGGrrrrGGrrrrGGrrrr"/>
        <phase duration="3" state="GGyyyyGGrrrrGGrrrrGGrrrr"/>
        <phase duration="34.94" state="GGrrrrGGggggGGrrrrGGrrrr"/>
        <phase duration="3" state="GGrrrrGGyyyyGGrrrrGGrrrr"/>
        <phase duration="42.35" state="GGrrrrGGrrrrGGrrrrGGgggg"/>
        <phase duration="3" state="GGrrrrGGrrrrGGrrrrGGyyyy"/>
        <phase duration="42.26" state="GGrrrrGGrrrrGGggggGGrrrr"/>
        <phase duration="3" state="GGrrrrGGrrrrGGyyyyGGrrrr"/>
        <phase duration="30.93" state="GGggggGGrrrrGGrrrrGGrrrr"/>
        <phase duration="3" state="GGyyyyGGrrrrGGrrrrGGrrrr"/>
        <phase duration="25.43" state="GGrrrrGGggggGGrrrrGGrrrr"/>
        <phase duration="3" state="GGrrrrGGyyyyGGrrrrGGrrrr"/>
        <phase duration="38.31" state="GGrrrrGGrrrrGGrrrrGGgggg"/>
        <phase duration="3" state="GGrrrrGGrrrrGGrrrrGGyyyy"/>
        <phase duration="37.97" state="GGrrrrGGrrrrGGggggGGrrrr"/>
        <phase duration="3" state="GGrrrrGGrrrrGGyyyyGGrrrr"/>
        <phase duration="21.97" state="GGggggGGrrrrGGrrrrGGrrrr"/>
        <phase duration="3" state="GGyyyyGGrrrrGGrrrrGGrrrr"/>
        <phase duration="25.23" state="GGrrrrGGggggGGrrrrGGrrrr"/>
        <phase duration="3" state="GGrrrrGGyyyyGGrrrrGGrrrr"/>
        <phase duration="34.62" state="GGrrrrGGrrrrGGrrrrGGgggg"/>
        <phase duration="3" state="GGrrrrGGrrrrGGrrrrGGyyyy"/>
        <phase duration="48.72" state="GGrrrrGGrrrrGGggggGGrrrr"/>
        <phase duration="3" state="GGrrrrGGrrrrGGyyyyGGrrrr"/>
        <phase duration="38.33" state="GGggggGGrrrrGGrrrrGGrrrr"/>
        <phase duration="3" state="GGyyyyGGrrrrGGrrrrGGrrrr"/>
        <phase duration="46.64" state="GGrrrrGGggggGGrrrrGGrrrr"/>
        <phase duration="3" state="GGrrrrGGyyyyGGrrrrGGrrrr"/>
        <phase duration="30.79" state="GGrrrrGGrrrrGGrrrrGGgggg"/>
        <phase duration="3" state="GGrrrrGGrrrrGGrrrrGGyyyy"/>
        <phase duration="26.39" state="GGrrrrGGrrrrGGggggGGrrrr"/>
        <phase duration="3" state="GGrrrrGGrrrrGGyyyyGGrrrr"/>
        <phase duration="26.02" state="GGggggGGrrrrGGrrrrGGrrrr"/>
        <phase duration="3" state="GGyyyyGGrrrrGGrrrrGGrrrr"/>