<tlLogics>
  <tlLogic id="intersection" programID="my_program" offset="0" type="static">
    <phase duration="37.7512101155" state="GGrrrrGGrrrrGGrrrrGGgggg"/>
    <phase duration="3" state="GGrrrrGGrrrrGGrrrrGGyyyy"/>
    <phase duration="41.328382504" state="GGrrrrGGrrrrGGggggGGrrrr"/>
    <phase duration="3" state="GGrrrrGGrrrrGGyyyyGGrrrr"/>
    <phase duration="21.2903874119" state="GGggggGGrrrrGGrrrrGGrrrr"/>
    <phase duration="3" state="GGyyyyGGrrrrGGrrrrGGrrrr"/>
    <phase duration="22.0835854903" state="GGrrrrGGggggGGrrrrGGrrrr"/>
    <phase duration="3" state="GGrrrrGGyyyyGGrrrrGGrrrr"/>
    <phase duration="47.6073268025" state="GGrrrrGGrrrrGGrrrrGGgggg"/>
    <phase duration="3" state="GGrrrrGGrrrrGGrrrrGGyyyy"/>
    <phase duration="36.403542233" state="GGrrrrGGrrrrGGggggGGrrrr"/>
    <phase duration="3" state="GGrrrrGGrrrrGGyyyyGGrrrr"/>
    <phase duration="42.8206264374" state="GGggggGGrrrrGGrrrrGGrrrr"/>
    <phase duration="3" state="GGyyyyGGrrrrGGrrrrGGrrrr"/>
    <phase duration="29.5440768321" state="GGrrrrGGggggGGrrrrGGrrrr"/>
    <phase duration="3" state="GGrrrrGGyyyyGGrrrrGGrrrr"/>
    <phase duration="28.9295352642" state="GGrrrrGGrrrrGGrrrrGGgggg"/>
    <phase duration="3" state="GGrrrrGGrrrrGGrrrrGGyyyy"/>
    <phase duration="41.8834487832" state="GGrrrrGGrrrrGGggggGGrrrr"/>
    <phase duration="3" state="GGrrrrGGrrrrGGyyyyGGrrrr"/>
    <phase duration="30.7012705164" state="GGggggGGrrrrGGrrrrGGrrrr"/>
    <phase duration="3" state="GGyyyyGGrrrrGGrrrrGGrrrr"/>
    <phase duration="40.4984111896" state="GGrrrrGGggggGGrrrrGGrrrr"/>
    <phase duration="3" state="GGrrrrGGyyyyGGrrrrGGrrrr"/>
    <phase duration="33.8921418841" state="GGrrrrGGrrrrGGrrrrGGgggg"/>
    <phase duration="3" state="GGrrrrGGrrrrGGrrrrGGyyyy"/>
    <phase duration="23.2589250588" state="GGrrrrGGrrrrGGggggGGrrrr"/>
    <phase duration="3" state="GGrrrrGGrrrrGGyyyyGGrrrr"/>
    <phase duration="29.2250603534" state="GGggggGGrrrrGGrrrrGGrrrr"/>
    <phase duration="3" state="GGyyyyGGrrrrGGrrrrGGrrrr"/>
    <phase duration="27.4478410033" state="GGrrrrGGggggGGrrrrGGrrrr"/>
    <phase duration="3" state="GGrrrrGGyyyyGGrrrrGGrrrr"/>
    <phase duration="25.474110886" state="GGrrrrGGrrrrGGrrrrGGgggg"/>
    <phase duration="3" state="GGrrrrGGrrrrGGrrrrGGyyyy"/>
    <phase duration="44.7235004812" state="GGrrrrGGrrrrGGggggGGrrrr"/>
    <phase duration="3" state="GGrrrrGGrrrrGGyyyyGGrrrr"/>
    <phase duration="37.4845413916" state="GGggggGGrrrrGGrrrrGGrrrr"/>
    <phase duration="3" state="GGyyyyGGrrrrGGrrrrGGrrrr"/>
    <phase duration="31.6002525899" state="GGrrrrGGggggGGrrrrGGrrrr"/>
    <phase duration="3" state="GGrrrrGGyyyyGGrrrrGGrrrr"/>
    <phase duration="25.7955315911" state="GGrrrrGGrrrrGGrrrrGGgggg"/>
    <phase duration="3" state="GGrrrrGGrrrrGGrrrrGGyyyy"/>
    <phase duration="45.5670007613" state="GGrrrrGGrrrrGGggggGGrrrr"/>
    <phase duration="3" state="GGrrrrGGrrrrGGyyyyGGrrrr"/>
    <phase duration="49.3960796237" state="GGggggGGrrrrGGrrrrGGrrrr"/>
    <phase duration="3" state="GGyyyyGGrrrrGGrrrrGGrrrr"/>
    <phase duration="46.3969240216" state="GGrrrrGGggggGGrrrrGGrrrr"/>
    <phase duration="3" state="GGrrrrGGyyyyGGrrrrGGrrrr"/>
    <phase duration="22.8402335598" state="GGrrrrGGrrrrGGrrrrGGgggg"/>
    <phase duration="3" state="GGrrrrGGrrrrGGrrrrGGyyyy"/>
    <phase duration="45.4925342555" state="GGrrrrGGrrrrGGggggGGrrrr"/>
    <phase duration="3" state="GGrrrrGGrrrrGGyyyyGGrrrr"/>
    <phase duration="44.5197490028" state="GGggggGGrrrrGGrrrrGGrrrr"/>
    <phase duration="3" state="GGyyyyGGrrrrGGrrrrGGrrrr"/>
    <phase duration="37.4252797132" state="GGrrrrGGggggGGrrrrGGrrrr"/>
    <phase duration="3" state="GGrrrrGGyyyyGGrrrrGGrrrr"/>
    <phase duration="26.9637119666" state="GGrrrrGGrrrrGGrrrrGGgggg"/>
    <phase duration="3" state="GGrrrrGGrrrrGGrrrrGGyyyy"/>
    <phase duration="47.7040663957" state="GGrrrrGGrrrrGGggggGGrrrr"/>
    <phase duration="3" state="GGrrrrGGrrrrGGyyyyGGrrrr"/>
    <phase duration="45.900117752" state="GGggggGGrrrrGGrrrrGGrrrr"/>
    <phase duration="3" state="GGyyyyGGrrrrGGrrrrGGrrrr"/>
    <phase duration="34.9395805939" state="GGrrrrGGggggGGrrrrGGrrrr"/>
    <phase duration="3" state="GGrrrrGGyyyyGGrrrrGGrrrr"/>
    <phase duration="40.441783446" state="GGrrrrGGrrrrGGrrrrGGgggg"/>
    <phase duration="3" state="GGrrrrGGrrrrGGrrrrGGyyyy"/>
    <phase duration="21.7022637437" state="GGrrrrGGrrrrGGggggGGrrrr"/>
    <phase duration="3" state="GGrrrrGGrrrrGGyyyyGGrrrr"/>
    <phase duration="39.1018012847" state="GGggggGGrrrrGGrrrrGGrrrr"/>
    <phase duration="3" state="GGyyyyGGrrrrGGrrrrGGrrrr"/>
    <phase duration="46.6466326528" state="GGrrrrGGggggGGrrrrGGrrrr"/>
    <phase duration="3" state="GGrrrrGGyyyyGGrrrrGGrrrr"/>
    <phase duration="33.8673497789" state="GGrrrrGGrrrrGGrrrrGGgggg"/>
    <phase duration="3" state="GGrrrrGGrrrrGGrrrrGGyyyy"/>
    <phase duration="25.6292248853" state="GGrrrrGGrrrrGGggggGGrrrr"/>
    <phase duration="3" state="GGrrrrGGrrrrGGyyyyGGrrrr"/>
    <phase duration="44.8498811758" state="GGggggGGrrrrGGrrrrGGrrrr"/>
    <phase duration="3" state="GGyyyyGGrrrrGGrrrrGGrrrr"/>
    <phase duration="23.2378072352" state="GGrrrrGGggggGGrrrrGGrrrr"/>
    <phase duration="3" state="GGrrrrGGyyyyGGrrrrGGrrrr"/>
    <phase duration="32.5853603406" state="GGrrrrGGrrrrGGrrrrGGgggg"/>
    <phase duration="3" state="GGrrrrGGrrrrGGrrrrGGyyyy"/>
    <phase duration="23.539224394" state="GGrrrrGGrrrrGGggggGGrrrr"/>
    <phase duration="3" state="GGrrrrGGrrrrGGyyyyGGrrrr"/>
    <phase duration="20.8245037323" state="GGggggGGrrrrGGrrrrGGrrrr"/>
    <phase duration="3" state="GGyyyyGGrrrrGGrrrrGGrrrr"/>
    <phase duration="40.9992824658" state="GGrrrrGGggggGGrrrrGGrrrr"/>
    <phase duration="3" state="GGrrrrGGyyyyGGrrrrGGrrrr"/>
    <phase duration="37.5273824065" state="GGrrrrGGrrrrGGrrrrGGgggg"/>
    <phase duration="3" state="GGrrrrGGrrrrGGrrrrGGyyyy"/>
    <phase duration="28.5827482506" state="GGrrrrGGrrrrGGggggGGrrrr"/>
    <phase duration="3" state="GGrrrrGGrrrrGGyyyyGGrrrr"/>
    <phase duration="41.1269618651" state="GGggggGGrrrrGGrrrrGGrrrr"/>
    <phase duration="3" state="GGyyyyGGrrrrGGrrrrGGrrrr"/>
    <phase duration="31.1426359543" state="GGrrrrGGggggGGrrrrGGrrrr"/>
    <phase duration="3" state="GGrrrrGGyyyyGGrrrrGGrrrr"/>
    <phase duration="29.0237566989" state="GGrrrrGGrrrrGGrrrrGGgggg"/>
    <phase duration="3" state="GGrrrrGGrrrrGGrrrrGGyyyy"/>
    <phase duration="31.3643885184" state="GGrrrrGGrrrrGGggggGGrrrr"/>
    <phase duration="3" state="GGrrrrGGrrrrGGyyyyGGrrrr"/>
    <phase duration="29.7341850905" state="GGggggGGrrrrGGrrrrGGrrrr"/>
    <phase duration="3" state="GGyyyyGGrrrrGGrrrrGGrrrr"/>
    <phase duration="27.6471654018" state="GGrrrrGGggggGGrrrrGGrrrr"/>
    <phase duration="3" state="GGrrrrGGyyyyGGrrrrGGrrrr"/>
    <phase duration="36.4322855416" state="GGrrrrGGrrrrGGrrrrGGgggg"/>
    <phase duration="3" state="GGrrrrGGrrrrGGrrrrGGyyyy"/>
    <phase duration="46.4775093674" state="GGrrrrGGrrrrGGggggGGrrrr"/>
    <phase duration="3" state="GGrrrrGGrrrrGGyyyyGGrrrr"/>
    <phase duration="25.50609527" state="GGggggGGrrrrGGrrrrGGrrrr"/>
    <phase duration="3" state="GGyyyyGGrrrrGGrrrrGGrrrr"/>
    <phase duration="26.0447597676" state="GGrrrrGGggggGGrrrrGGrrrr"/>
    <phase duration="3" state="GGrrrrGGyyyyGGrrrrGGrrrr"/>
    <phase duration="41.2768400161" state="GGrrrrGGrrrrGGrrrrGGgggg"/>
    <phase duration="3" state="GGrrrrGGrrrrGGrrrrGGyyyy"/>
    <phase duration="30.3331874362" state="GGrrrrGGrrrrGGggggGGrrrr"/>
    <phase duration="3" state="GGrrrrGGrrrrGGyyyyGGrrrr"/>
    <phase duration="49.452147139" state="GGggggGGrrrrGGrrrrGGrrrr"/>
    <phase duration="3" state="GGyyyyGGrrrrGGrrrrGGrrrr"/>
    <phase duration="41.4417195736" state="GGrrrrGGggggGGrrrrGGrrrr"/>
    <phase duration="3" state="GGrrrrGGyyyyGGrrrrGGrrrr"/>
    <phase duration="25.5888424309" state="GGrrrrGGrrrrGGrrrrGGgggg"/>
    <phase duration="3" state="GGrrrrGGrrrrGGrrrrGGyyyy"/>
    <phase duration="24.9612503423" state="GGrrrrGGrrrrGGggggGGrrrr"/>
    <phase duration="3" state="GGrrrrGGrrrrGGyyyyGGrrrr"/>
    <phase duration="48.4849272688" state="GGggggGGrrrrGGrrrrGGrrrr"/>
    <phase duration="3" state="GGyyyyGGrrrrGGrrrrGGrrrr"/>
    <phase duration="28.1792666919" state="GGrrrrGGggggGGrrrrGGrrrr"/>
    <phase duration="3" state="GGrrrrGGyyyyGGrrrrGGrrrr"/>
    <phase duration="35.4460319001" state="GGrrrrGGrrrrGGrrrrGGgggg"/>
    <phase duration="3" state="GGrrrrGGrrrrGGrrrrGGyyyy"/>
    <phase duration="24.2236752539" state="GGrrrrGGrrrrGGggggGGrrrr"/>
    <phase duration="3" state="GGrrrrGGrrrrGGyyyyGGrrrr"/>
    <phase duration="49.063354042" state="GGggggGGrrrrGGrrrrGGrrrr"/>
    <phase duration="3" state="GGyyyyGGrrrrGGrrrrGGrrrr"/>
    <phase duration="40.396683719" state="GGrrrrGGggggGGrrrrGGrrrr"/>
    <phase duration="3" state="GGrrrrGGyyyyGGrrrrGGrrrr"/>
    <phase duration="40.8846644292" state="GGrrrrGGrrrrGGrrrrGGgggg"/>
    <phase duration="3" state="GGrrrrGGrrrrGGrrrrGGyyyy"/>
    <phase duration="40.2786586314" state="GGrrrrGGrrrrGGggggGGrrrr"/>
    <phase duration="3" state="GGrrrrGGrrrrGGyyyyGGrrrr"/>
    <phase duration="43.6936651757" state="GGggggGGrrrrGGrrrrGGrrrr"/>
    <phase duration="3" state="GGyyyyGGrrrrGGrrrrGGrrrr"/>
    <phase duration="38.4309755224" state="GGrrrrGGggggGGrrrrGGrrrr"/>
    <phase duration="3" state="GGrrrrGGyyyyGGrrrrGGrrrr"/>
    <phase duration="48.442407535" state="GGrrrrGGrrrrGGrrrrGGgggg"/>
    <phase duration="3" state="GGrrrrGGrrrrGGrrrrGGyyyy"/>
    <phase duration="32.6140729893" state="GGrrrrGGrrrrGGggggGGrrrr"/>
    <phase duration="3" state="GGrrrrGGrrrrGGyyyyGGrrrr"/>
    <phase duration="21.0404911257" state="GGggggGGrrrrGGrrrrGGrrrr"/>
    <phase duration="3" state="GGyyyyGGrrrrGGrrrrGGrrrr"/>
    <phase duration="48.6281420077" state="GGrrrrGGggggGGrrrrGGrrrr"/>
    <phase duration="3" state="GGrrrrGGyyyyGGrrrrGGrrrr"/>
    <phase duration="29.4480237601" state="GGrrrrGGrrrrGGrrrrGGgggg"/>
    <phase duration="3" state="GGrrrrGGrrrrGGrrrrGGyyyy"/>
    <phase duration="22.4112804311" state="GGrrrrGGrrrrGGggggGGrrrr"/>
    <phase duration="3" state="GGrrrrGGrrrrGGyyyyGGrrrr"/>
    <phase duration="27.6734666661" state="GGggggGGrrrrGGrrrrGGrrrr"/>
    <phase duration="3" state="GGyyyyGGrrrrGGrrrrGGrrrr"/>
    <phase duration="38.74280595" state="GGrrrrGGggggGGrrrrGGrrrr"/>
    <phase duration="3" state="GGrrrrGGyyyyGGrrrrGGrrrr"/>
    <phase duration="44.7246051593" state="GGrrrrGGrrrrGGrrrrGGgggg"/>
    <phase duration="3" state="GGrrrrGGrrrrGGrrrrGGyyyy"/>
    <phase duration="32.7629294693" state="GGrrrrGGrrrrGGggggGGrrrr"/>
    <phase duration="3" state="GGrrrrGGrrrrGGyyyyGGrrrr"/>
    <phase duration="32.9409558958" state="GGggggGGrrrrGGrrrrGGrrrr"/>
    <phase duration="3" state="GGyyyyGGrrrrGGrrrrGGrrrr"/>
    <phase duration="34.3835437711" state="GGrrrrGGggggGGrrrrGGrrrr"/>
    <phase duration="3" state="GGrrrrGGyyyyGGrrrrGGrrrr"/>
    <phase duration="30.5374999208" state="GGrrrrGGrrrrGGrrrrGGgggg"/>
    <phase duration="3" state="GGrrrrGGrrrrGGrrrrGGyyyy"/>
    <phase duration="41.0837050044" state="GGrrrrGGrrrrGGggggGGrrrr"/>
    <phase duration="3" state="GGrrrrGGrrrrGGyyyyGGrrrr"/>
    <phase duration="44.8096083286" state="GGggggGGrrrrGGrrrrGGrrrr"/>
    <phase duration="3" state="GGyyyyGGrrrrGGrrrrGGrrrr"/>
    <phase duration="38.8570327281" state="GGrrrrGGggggGGrrrrGGrrrr"/>
    <phase duration="3" state="GGrrrrGGyyyyGGrrrrGGrrrr"/>
    <phase duration="34.9361871926" state="GGrrrrGGrrrrGGrrrrGGgggg"/>
    <phase duration="3" state="GGrrrrGGrrrrGGrrrrGGyyyy"/>
    <phase duration="48.035177704" state="GGrrrrGGrrrrGGggggGGrrrr"/>
    <phase duration="3" state="GGrrrrGGrrrrGGyyyyGGrrrr"/>
    <phase duration="24.9961179154" state="GGggggGGrrrrGGrrrrGGrrrr"/>
    <phase duration="3" state="GGyyyyGGrrrrGGrrrrGGrrrr"/>
    <phase duration="43.4888942607" state="GGrrrrGGggggGGrrrrGGrrrr"/>
    <phase duration="3" state="GGrrrrGGyyyyGGrrrrGGrrrr"/>
    <phase duration="20.2520182256" state="GGrrrrGGrrrrGGrrrrGGgggg"/>
    <phase duration="3" state="GGrrrrGGrrrrGGrrrrGGyyyy"/>
    <phase duration="40.7646909731" state="GGrrrrGGrrrrGGggggGGrrrr"/>
    <phase duration="3" state="GGrrrrGGrrrrGGyyyyGGrrrr"/>
    <phase duration="34.5106752975" state="GGggggGGrrrrGGrrrrGGrrrr"/>
    <phase duration="3" state="GGyyyyGGrrrrGGrrrrGGrrrr"/>
    <phase duration="21.4647674757" state="GGrrrrGGggggGGrrrrGGrrrr"/>
    <phase duration="3" state="GGrrrrGGyyyyGGrrrrGGrrrr"/>
    <phase duration="42.8011697909" state="GGrrrrGGrrrrGGrrrrGGgggg"/>
    <phase duration="3" state="GGrrrrGGrrrrGGrrrrGGyyyy"/>
    <phase duration="37.1224684136" state="GGrrrrGGrrrrGGggggGGrrrr"/>
    <phase duration="3" state="GGrrrrGGrrrrGGyyyyGGrrrr"/>
    <phase duration="21.3850240826" state="GGggggGGrrrrGGrrrrGGrrrr"/>
    <phase duration="3" state="GGyyyyGGrrrrGGrrrrGGrrrr"/>
    <phase duration="34.9398287203" state="GGrrrrGGggggGGrrrrGGrrrr"/>
    <phase duration="3" state="GGrrrrGGyyyyGGrrrrGGrrrr"/>
    <phase duration="42.3529792946" state="GGrrrrGGrrrrGGrrrrGGgggg"/>
    <phase duration="3" state="GGrrrrGGrrrrGGrrrrGGyyyy"/>
    <phase duration="42.2609691981" state="GGrrrrGGrrrrGGggggGGrrrr"/>
    <phase duration="3" state="GGrrrrGGrrrrGGyyyyGGrrrr"/>
    <phase duration="30.9335431358" state="GGggggGGrrrrGGrrrrGGrrrr"/>
    <phase duration="3" state="GGyyyyGGrrrrGGrrrrGGrrrr"/>
    <phase duration="25.4335391999" state="GGrrrrGGggggGGrrrrGGrrrr"/>
    <phase duration="3" state="GGrrrrGGyyyyGGrrrrGGrrrr"/>
    <phase duration="38.3135624272" state="GGrrrrGGrrrrGGrrrrGGgggg"/>
    <phase duration="3" state="GGrrrrGGrrrrGGrrrrGGyyyy"/>
    <phase duration="37.965724775" state="GGrrrrGGrrrrGGggggGGrrrr"/>
    <phase duration="3" state="GGrrrrGGrrrrGGyyyyGGrrrr"/>
    <phase duration="21.9662478741" state="GGggggGGrrrrGGrrrrGGrrrr"/>
    <phase duration="3" state="GGyyyyGGrrrrGGrrrrGGrrrr"/>
    <phase duration="25.2297260319" state="GGrrrrGGggggGGrrrrGGrrrr"/>
    <phase duration="3" state="GGrrrrGGyyyyGGrrrrGGrrrr"/>
    <phase duration="34.6242903063" state="GGrrrrGGrrrrGGrrrrGGgggg"/>
    <phase duration="3" state="GGrrrrGGrrrrGGrrrrGGyyyy"/>
    <phase duration="48.7153540313" state="GGrrrrGGrrrrGGggggGGrrrr"/>
    <phase duration="3" state="GGrrrrGGrrrrGGyyyyGGrrrr"/>
    <phase duration="38.3273225948" state="GGggggGGrrrrGGrrrrGGrrrr"/>
    <phase duration="3" state="GGyyyyGGrrrrGGrrrrGGrrrr"/>
    <phase duration="46.6440430746" state="GGrrrrGGggggGGrrrrGGrrrr"/>
    <phase duration="3" state="GGrrrrGGyyyyGGrrrrGGrrrr"/>
    <phase duration="30.78490397" state="GGrrrrGGrrrrGGrrrrGGgggg"/>
    <phase duration="3" state="GGrrrrGGrrrrGGrrrrGGyyyy"/>
    <phase duration="26.3949858422" state="GGrrrrGGrrrrGGggggGGrrrr"/>
    <phase duration="3" state="GGrrrrGGrrrrGGyyyyGGrrrr"/>
    <phase duration="26.0169287319" state="GGggggGGrrrrGGrrrrGGrrrr"/>
    <phase duration="3" state="GGyyyyGGrrrrGGrrrrGGrrrr"/>
    <phase duration="21.9689749112" state="GGrrrrGGggggGGrrrrGGrrrr"/>
    <phase duration="3" state="GGrrrrGGyyyyGGrrrrGGrrrr"/>
    <phase duration="49.7958569948" state="GGrrrrGGrrrrGGrrrrGGgggg"/>
    <phase duration="3" state="GGrrrrGGrrrrGGrrrrGGyyyy"/>
    <phase duration="34.5054747599" state="GGrrrrGGrrrrGGggggGGrrrr"/>
    <phase duration="3" state="GGrrrrGGrrrrGGyyyyGGrrrr"/>
    <phase duration="21.9012686214" state="GGggggGGrrrrGGrrrrGGrrrr"/>
    <phase duration="3" state="GGyyyyGGrrrrGGrrrrGGrrrr"/>
    <phase duration="40.8825075589" state="GGrrrrGGggggGGrrrrGGrrrr"/>
    <phase duration="3" state="GGrrrrGGyyyyGGrrrrGGrrrr"/>
    <phase duration="47.8555896999" state="GGrrrrGGrrrrGGrrrrGGgggg"/>
    <phase duration="3" state="GGrrrrGGrrrrGGrrrrGGyyyy"/>
    <phase duration="46.9087543676" state="GGrrrrGGrrrrGGggggGGrrrr"/>
    <phase duration="3" state="GGrrrrGGrrrrGGyyyyGGrrrr"/>
    <phase duration="20.416072613" state="GGggggGGrrrrGGrrrrGGrrrr"/>
    <phase duration="3" state="GGyyyyGGrrrrGGrrrrGGrrrr"/>
    <phase duration="21.0190629205" state="GGrrrrGGggggGGrrrrGGrrrr"/>
    <phase duration="3" state="GGrrrrGGyyyyGGrrrrGGrrrr"/>
    <phase duration="31.3676971182" state="GGrrrrGGrrrrGGrrrrGGgggg"/>
    <phase duration="3" state="GGrrrrGGrrrrGGrrrrGGyyyy"/>
    <phase duration="38.2187348045" state="GGrrrrGGrrrrGGggggGGrrrr"/>
    <phase duration="3" state="GGrrrrGGrrrrGGyyyyGGrrrr"/>
    <phase duration="29.2228047719" state="GGggggGGrrrrGGrrrrGGrrrr"/>
    <phase duration="3" state="GGyyyyGGrrrrGGrrrrGGrrrr"/>
    <phase duration="43.0049117874" state="GGrrrrGGggggGGrrrrGGrrrr"/>
    <phase duration="3" state="GGrrrrGGyyyyGGrrrrGGrrrr"/>
    <phase duration="35.78204783" state="GGrrrrGGrrrrGGrrrrGGgggg"/>
    <phase duration="3" state="GGrrrrGGrrrrGGrrrrGGyyyy"/>
    <phase duration="44.7682517653" state="GGrrrrGGrrrrGGggggGGrrrr"/>
    <phase duration="3" state="GGrrrrGGrrrrGGyyyyGGrrrr"/>
    <phase duration="22.8271195411" state="GGggggGGrrrrGGrrrrGGrrrr"/>
    <phase duration="3" state="GGyyyyGGrrrrGGrrrrGGrrrr"/>
    <phase duration="30.2425277903" state="GGrrrrGGggggGGrrrrGGrrrr"/>
    <phase duration="3" state="GGrrrrGGyyyyGGrrrrGGrrrr"/>
    <phase duration="45.4875968061" state="GGrrrrGGrrrrGGrrrrGGgggg"/>
    <phase duration="3" state="GGrrrrGGrrrrGGrrrrGGyyyy"/>
    <phase duration="33.0412031655" state="GGrrrrGGrrrrGGggggGGrrrr"/>
    <phase duration="3" state="GGrrrrGGrrrrGGyyyyGGrrrr"/>
    <phase duration="29.8708405075" state="GGggggGGrrrrGGrrrrGGrrrr"/>
    <phase duration="3" state="GGyyyyGGrrrrGGrrrrGGrrrr"/>
    <phase duration="41.638114018" state="GGrrrrGGggggGGrrrrGGrrrr"/>
    <phase duration="3" state="GGrrrrGGyyyyGGrrrrGGrrrr"/>
    <phase duration="42.4290762243" state="GGrrrrGGrrrrGGrrrrGGgggg"/>
    <phase duration="3" state="GGrrrrGGrrrrGGrrrrGGyyyy"/>
    <phase duration="47.0680962314" state="GGrrrrGGrrrrGGggggGGrrrr"/>
    <phase duration="3" state="GGrrrrGGrrrrGGyyyyGGrrrr"/>
    <phase duration="41.2272814019" state="GGggggGGrrrrGGrrrrGGrrrr"/>
    <phase duration="3" state="GGyyyyGGrrrrGGrrrrGGrrrr"/>
    <phase duration="32.1616927533" state="GGrrrrGGggggGGrrrrGGrrrr"/>
    <phase duration="3" state="GGrrrrGGyyyyGGrrrrGGrrrr"/>
    <phase duration="39.5345379602" state="GGrrrrGGrrrrGGrrrrGGgggg"/>
    <phase duration="3" state="GGrrrrGGrrrrGGrrrrGGyyyy"/>
    <phase duration="31.5650790214" state="GGrrrrGGrrrrGGggggGGrrrr"/>
    <phase duration="3" state="GGrrrrGGrrrrGGyyyyGGrrrr"/>
    <phase duration="41.9093709316" state="GGggggGGrrrrGGrrrrGGrrrr"/>
    <phase duration="3" state="GGyyyyGGrrrrGGrrrrGGrrrr"/>
    <phase duration="20.6956779606" state="GGrrrrGGggggGGrrrrGGrrrr"/>
    <phase duration="3" state="GGrrrrGGyyyyGGrrrrGGrrrr"/>
    <phase duration="25.3929009736" state="GGrrrrGGrrrrGGrrrrGGgggg"/>
    <phase duration="3" state="GGrrrrGGrrrrGGrrrrGGyyyy"/>
    <phase duration="39.2213825708" state="GGrrrrGGrrrrGGggggGGrrrr"/>
    <phase duration="3" state="GGrrrrGGrrrrGGyyyyGGrrrr"/>
    <phase duration="34.9915265087" state="GGggggGGrrrrGGrrrrGGrrrr"/>
    <phase duration="3" state="GGyyyyGGrrrrGGrrrrGGrrrr"/>
    <phase duration="39.6340091907" state="GGrrrrGGggggGGrrrrGGrrrr"/>
    <phase duration="3" state="GGrrrrGGyyyyGGrrrrGGrrrr"/>
    <phase duration="30.5998246885" state="GGrrrrGGrrrrGGrrrrGGgggg"/>
    <phase duration="3" state="GGrrrrGGrrrrGGrrrrGGyyyy"/>
    <phase duration="46.4501803514" state="GGrrrrGGrrrrGGggggGGrrrr"/>
    <phase duration="3" state="GGrrrrGGrrrrGGyyyyGGrrrr"/>
    <phase duration="23.6260377641" state="GGggggGGrrrrGGrrrrGGrrrr"/>
    <phase duration="3" state="GGyyyyGGrrrrGGrrrrGGrrrr"/>
    <phase duration="27.9987500675" state="GGrrrrGGggggGGrrrrGGrrrr"/>
    <phase duration="3" state="GGrrrrGGyyyyGGrrrrGGrrrr"/>
    <phase duration="33.8646138027" state="GGrrrrGGrrrrGGrrrrGGgggg"/>
    <phase duration="3" state="GGrrrrGGrrrrGGrrrrGGyyyy"/>
    <phase duration="20.5090094613" state="GGrrrrGGrrrrGGggggGGrrrr"/>
    <phase duration="3" state="GGrrrrGGrrrrGGyyyyGGrrrr"/>
    <phase duration="20.1969219508" state="GGggggGGrrrrGGrrrrGGrrrr"/>
    <phase duration="3" state="GGyyyyGGrrrrGGrrrrGGrrrr"/>
    <phase duration="45.3640729065" state="GGrrrrGGggggGGrrrrGGrrrr"/>
    <phase duration="3" state="GGrrrrGGyyyyGGrrrrGGrrrr"/>
    <phase duration="27.4219930414" state="GGrrrrGGrrrrGGrrrrGGgggg"/>
    <phase duration="3" state="GGrrrrGGrrrrGGrrrrGGyyyy"/>
    <phase duration="47.4340537013" state="GGrrrrGGrrrrGGggggGGrrrr"/>
    <phase duration="3" state="GGrrrrGGrrrrGGyyyyGGrrrr"/>
    <phase duration="46.3237473499" state="GGggggGGrrrrGGrrrrGGrrrr"/>
    <phase duration="3" state="GGyyyyGGrrrrGGrrrrGGrrrr"/>
    <phase duration="40.9261265894" state="GGrrrrGGggggGGrrrrGGrrrr"/>
    <phase duration="3" state="GGrrrrGGyyyyGGrrrrGGrrrr"/>
    <phase duration="24.0797245492" state="GGrrrrGGrrrrGGrrrrGGgggg"/>
    <phase duration="3" state="GGrrrrGGrrrrGGrrrrGGyyyy"/>
    <phase duration="43.1466610708" state="GGrrrrGGrrrrGGggggGGrrrr"/>
    <phase duration="3" state="GGrrrrGGrrrrGGyyyyGGrrrr"/>
    <phase duration="37.2519359954" state="GGggggGGrrrrGGrrrrGGrrrr"/>
    <phase duration="3" state="GGyyyyGGrrrrGGrrrrGGrrrr"/>
    <phase duration="28.9331517329" state="GGrrrrGGggggGGrrrrGGrrrr"/>
    <phase duration="3" state="GGrrrrGGyyyyGGrrrrGGrrrr"/>
    <phase duration="27.3876142355" state="GGrrrrGGrrrrGGrrrrGGgggg"/>
    <phase duration="3" state="GGrrrrGGrrrrGGrrrrGGyyyy"/>
    <phase duration="48.3366988254" state="GGrrrrGGrrrrGGggggGGrrrr"/>
    <phase duration="3" state="GGrrrrGGrrrrGGyyyyGGrrrr"/>
    <phase duration="37.7652682255" state="GGggggGGrrrrGGrrrrGGrrrr"/>
    <phase duration="3" state="GGyyyyGGrrrrGGrrrrGGrrrr"/>
    <phase duration="47.3899193975" state="GGrrrrGGggggGGrrrrGGrrrr"/>
    <phase duration="3" state="GGrrrrGGyyyyGGrrrrGGrrrr"/>
    <phase duration="27.7202323429" state="GGrrrrGGrrrrGGrrrrGGgggg"/>
    <phase duration="3" state="GGrrrrGGrrrrGGrrrrGGyyyy"/>
    <phase duration="44.190322103" state="GGrrrrGGrrrrGGggggGGrrrr"/>
    <phase duration="3" state="GGrrrrGGrrrrGGyyyyGGrrrr"/>
    <phase duration="40.2562645029" state="GGggggGGrrrrGGrrrrGGrrrr"/>
    <phase duration="3" state="GGyyyyGGrrrrGGrrrrGGrrrr"/>
    <phase duration="20.6830780154" state="GGrrrrGGggggGGrrrrGGrrrr"/>
    <phase duration="3" state="GGrrrrGGyyyyGGrrrrGGrrrr"/>
    <phase duration="33.63293198" state="GGrrrrGGrrrrGGrrrrGGgggg"/>
    <phase duration="3" state="GGrrrrGGrrrrGGrrrrGGyyyy"/>
    <phase duration="42.5617713862" state="GGrrrrGGrrrrGGggggGGrrrr"/>
    <phase duration="3" state="GGrrrrGGrrrrGGyyyyGGrrrr"/>
    <phase duration="29.9099180358" state="GGggggGGrrrrGGrrrrGGrrrr"/>
    <phase duration="3" state="GGyyyyGGrrrrGGrrrrGGrrrr"/>
    <phase duration="41.8223035783" state="GGrrrrGGggggGGrrrrGGrrrr"/>
    <phase duration="3" state="GGrrrrGGyyyyGGrrrrGGrrrr"/>
    <phase duration="30.0938330011" state="GGrrrrGGrrrrGGrrrrGGgggg"/>
    <phase duration="3" state="GGrrrrGGrrrrGGrrrrGGyyyy"/>
    <phase duration="40.2359390725" state="GGrrrrGGrrrrGGggggGGrrrr"/>
    <phase duration="3" state="GGrrrrGGrrrrGGyyyyGGrrrr"/>
    <phase duration="46.2984290397" state="GGggggGGrrrrGGrrrrGGrrrr"/>
    <phase duration="3" state="GGyyyyGGrrrrGGrrrrGGrrrr"/>
    <phase duration="40.3029552097" state="GGrrrrGGggggGGrrrrGGrrrr"/>
    <phase duration="3" state="GGrrrrGGyyyyGGrrrrGGrrrr"/>
    <phase duration="38.7990062858" state="GGrrrrGGrrrrGGrrrrGGgggg"/>
    <phase duration="3" state="GGrrrrGGrrrrGGrrrrGGyyyy"/>
    <phase duration="41.2860609369" state="GGrrrrGGrrrrGGggggGGrrrr"/>
    <phase duration="3" state="GGrrrrGGrrrrGGyyyyGGrrrr"/>
    <phase duration="38.521007185" state="GGggggGGrrrrGGrrrrGGrrrr"/>
    <phase duration="3" state="GGyyyyGGrrrrGGrrrrGGrrrr"/>
    <phase duration="39.0995618329" state="GGrrrrGGggggGGrrrrGGrrrr"/>
    <phase duration="3" state="GGrrrrGGyyyyGGrrrrGGrrrr"/>
    <phase duration="36.3456133894" state="GGrrrrGGrrrrGGrrrrGGgggg"/>
    <phase duration="3" state="GGrrrrGGrrrrGGrrrrGGyyyy"/>
    <phase duration="20.970671248" state="GGrrrrGGrrrrGGggggGGrrrr"/>
    <phase duration="3" state="GGrrrrGGrrrrGGyyyyGGrrrr"/>
    <phase duration="21.4167763121" state="GGggggGGrrrrGGrrrrGGrrrr"/>
    <phase duration="3" state="GGyyyyGGrrrrGGrrrrGGrrrr"/>
    <phase duration="49.8908290992" state="GGrrrrGGggggGGrrrrGGrrrr"/>
    <phase duration="3" state="GGrrrrGGyyyyGGrrrrGGrrrr"/>
    <phase duration="31.7602254793" state="GGrrrrGGrrrrGGrrrrGGgggg"/>
    <phase duration="3" state="GGrrrrGGrrrrGGrrrrGGyyyy"/>
    <phase duration="35.3832289097" state="GGrrrrGGrrrrGGggggGGrrrr"/>
    <phase duration="3" state="GGrrrrGGrrrrGGyyyyGGrrrr"/>
    <phase duration="40.1912954945" state="GGggggGGrrrrGGrrrrGGrrrr"/>
    <phase duration="3" state="GGyyyyGGrrrrGGrrrrGGrrrr"/>
    <phase duration="41.3827695545" state="GGrrrrGGggggGGrrrrGGrrrr"/>
    <phase duration="3" state="GGrrrrGGyyyyGGrrrrGGrrrr"/>
    <phase duration="35.3081076272" state="GGrrrrGGrrrrGGrrrrGGgggg"/>
    <phase duration="3" state="GGrrrrGGrrrrGGrrrrGGyyyy"/>
    <phase duration="39.5900373558" state="GGrrrrGGrrrrGGggggGGrrrr"/>
    <phase duration="3" state="GGrrrrGGrrrrGGyyyyGGrrrr"/>
    <phase duration="40.5590315733" state="GGggggGGrrrrGGrrrrGGrrrr"/>
    <phase duration="3" state="GGyyyyGGrrrrGGrrrrGGrrrr"/>
    <phase duration="32.0829188895" state="GGrrrrGGggggGGrrrrGGrrrr"/>
    <phase duration="3" state="GGrrrrGGyyyyGGrrrrGGrrrr"/>
    <phase duration="21.1582003695" state="GGrrrrGGrrrrGGrrrrGGgggg"/>
    <phase duration="3" state="GGrrrrGGrrrrGGrrrrGGyyyy"/>
    <phase duration="35.1041042641" state="GGrrrrGGrrrrGGggggGGrrrr"/>
    <phase duration="3" state="GGrrrrGGrrrrGGyyyyGGrrrr"/>
    <phase duration="42.9411104548" state="GGggggGGrrrrGGrrrrGGrrrr"/>
    <phase duration="3" state="GGyyyyGGrrrrGGrrrrGGrrrr"/>
    <phase duration="39.5078313745" state="GGrrrrGGggggGGrrrrGGrrrr"/>
    <phase duration="3" state="GGrrrrGGyyyyGGrrrrGGrrrr"/>
    <phase duration="20.9080500261" state="GGrrrrGGrrrrGGrrrrGGgggg"/>
    <phase duration="3" state="GGrrrrGGrrrrGGrrrrGGyyyy"/>
    <phase duration="29.9606001061" state="GGrrrrGGrrrrGGggggGGrrrr"/>
    <phase duration="3" state="GGrrrrGGrrrrGGyyyyGGrrrr"/>
    <phase duration="49.6429249615" state="GGggggGGrrrrGGrrrrGGrrrr"/>
    <phase duration="3" state="GGyyyyGGrrrrGGrrrrGGrrrr"/>
    <phase duration="24.4548996747" state="GGrrrrGGggggGGrrrrGGrrrr"/>
    <phase duration="3" state="GGrrrrGGyyyyGGrrrrGGrrrr"/>
    <phase duration="30.7105672763" state="GGrrrrGGrrrrGGrrrrGGgggg"/>
    <phase duration="3" state="GGrrrrGGrrrrGGrrrrGGyyyy"/>
    <phase duration="43.8255864165" state="GGrrrrGGrrrrGGggggGGrrrr"/>
    <phase duration="3" state="GGrrrrGGrrrrGGyyyyGGrrrr"/>
    <phase duration="46.6239743154" state="GGggggGGrrrrGGrrrrGGrrrr"/>
    <phase duration="3" state="GGyyyyGGrrrrGGrrrrGGrrrr"/>
    <phase duration="29.2138380253" state="GGrrrrGGggggGGrrrrGGrrrr"/>
    <phase duration="3" state="GGrrrrGGyyyyGGrrrrGGrrrr"/>
  </tlLogic>
</tlLogics>
